ODYSSEIA PRODUCED JARI KOIVISTO TAPIO RIIKONENODYSSEIAAFHOMEROSOFVERSATT OCH DISPUTATIONER UTGIFVEN AFAXEL GABRIEL SJOSTROMHELSINGFORSTRYCKT HOS J C FRENCKELL SON TIS DE KEN ALLOU AKOISAI ALIS PANTESSIN OMEROS THEOKRITOSINNEHALLLECTUROFORSTA SANGEN V ODYSSEUS MOT HVILKEN POSEIDAON VAR HOGELIGEN UPPBRAGGT QVARHOLLS PA OGYGIA DIT HAN EFTER ETT SKEPPSBROTT ANLANDT AF NYMFEN KALYPSO SOM FORALSKAT SIG HONOM V MEDAN NU POSEIDAON GASTADE HOS AITHIOPERNA ANHALLER ATHENE VID GUDARNAS RADPLAGNING ATT ODYSSEUS MATTE FA ATERVANDA TILL SITT ITHAKA SOM HAN SA MYCKET SAKNAR V SASNART ZEUS DERTILL SAMTYCKT RADER ATHENE ATT HERMES MATTE JU FORR DESTO HELLRE AFSANDAS TILL KALYPSO MED BEFALLNING ATT LATA DROTTEN RESA HEM SJELF HASTAR HON TILL ITHAKA OCH EGGAR SKEPNADEN AF MENTES DE TAPHIERS KONUNG TELEMACHOS ATT FRAN PALATSET BORTVISA SIN MODERS SKAMLOSA FRIARE SAMT SJELF RESA TILL NESTOR OCH MENELAOS ATT SOKA UNDERRATTELSE OM FADREN V HAREFTER AFLAGSNAR SIG ATHENE V SEDAN NU TELEMACHOS DE KALASANDE FRIARENA YTTRAT SIN MENING OCH PA EURYMACHOS FRAGA MED HVILKEN FREMLING HAN SAMTALT GIFVIT TILL SVAR ATT DET VARIT MED MENTES TILLBRINGAR HAN NATTEN BEKYMMERFULL PA SIN KAMMARE BERAD ATT FOLJANDE DAG VERKSTALLA GUDINNANS BEFALLNINGARANDRA SANGEN V FOLJANDE DAG FORKUNNAR TELEMACHOS UTI FOLKFORSAMLINGEN SIN MODERS FRIARE ATT DE MASTE DRAGA HADAN V DERPA SVARAR ANTINOOS OFVERMODIGT V TELEMACHOS SOM DEREFTER BEKLAGAR SIG OFVER FRIARENAS OFORRATT OCH ALLVARLIGEN YRKAR HVAD HAN YTTRAT VISA SIG PLOTSLIGT TVENNE ORNAR AF HVILKET JARTECKEN HALITHERSES SPAR OLYCKA FRIARENA MEN EURYMACHOS SKRATTAR SPADOMEN OCH SAGER TROTSIGT ATT FRIARENE ALLDELES ICKE LEMNA HUSET SAFRAMT ICKE PENELOPE ANTINGEN AF TELEMACHOS TILL SIN FADER ATERSANDES ELLER OCK AFGOR MED HVEM AF DEM HON ARNAR GIFTA SIG V TELEMACHOS BEGAR ETT SKEPP SIN TILLAMNADE RESA V MENTOR FOREBRAR ITHAKESIERNA ATT DE EJ ARA ODYSSEUS MINNE V LEIOKRITOS FAR HAFTIGT UT MOT MENTOR V SEDAN FOLKFORSAMLINGEN AR UPPLOST LOFVAR ATHENE MENTORS SKEPNAD ETT SKEPP TELEMACHOS OCH BER HONOM SKAFFA SIG RESKOST V NAR DEREFTER TELEMACHOS ATERVANDER TILL DE KALASANDE FRIARENA MOTTAGES HAN MED STICKORD V BORTGANGEN FRAN DESSA ANMODAR HAN EURYKLEIA ATT SKAFFA RESKOSTEN ORDNING OCH AFFORDRAR HENNE EN ED ATT HON SKALL HANS MODER DOLJA DEN TILLTANKTA RESAN V SEDAN ATHENE AF NOEMON FATT ETT SKEPP LEDSAGAR HON MENTORS SKEPNAD TILL DETSAMMA OM QVALLEN TELEMACHOS OCH DE AFRESA TILL PYLOS UTAN PENELOPES VETSKAPTREDJE SANGEN V BELEDSAGAD AF ATHENE KOMMER TELEMACHOS TILL PYLOS DER NESTOR JEMTE SINA SONER HALLER PA SOM BAST ATT OFFRA POSEIDAON BADA DE RESANDE MOTTAGAS GASTVANLIGEN V NESTOR SOM SEDAN FRAGAR HVILKA OCH HVADAN DE FREMMANDE ARO SVARAR TELEMACHOS ATT HAN AR ODYSSEUS SON SAMT RESER ATT HORA TIDENDER OM SIN FADER V SEDAN NESTOR HALLIT ETT LAFTAL OFVER ODYSSEUS BERATTAR HAN HURULEDES HELLENERNE EFTER EN EMELLAN AGAMEMNON OCH MENELAOS UPPKOMMEN OENIGHET PA SARSKILDA VAGAR SOKT SINA HEMBYGDER OCH ATT HAN VAL LYCKLIGEN HEMKOMMIT MEN EJ VISSTE HVAD SOM HANDT DE ANDRA VIDARE ATT PHILOKTETES OCH IDOMENEUS LIKALEDES FUNNIT HEMMET OCH ATT DEN AF AIGISTHOS MORDADE AGAMEMNON BLIFVIT HAMNAD AF SIN SON ORESTES V TELEMACHOS UPPMANAD AF NESTOR ATT FOLJA ORESTES EXEMPEL ANSER SIG EJ KUNNA VAGA FORETAGET OCH BEGAR NARMARE UNDERRATTELSER OM AGAMEMNONS DOD V NESTOR GOR HONOM TILL VILJES OCH RADER HONOM ATT RESA TILL MENELAOS SPARTA V MOT AFTONEN AMNA ATHENE OCH TELEMACHOS ATERVANDA TILL GALEJAN MEN DA NESTOR DERTILL NEKAR OCH BJUDER DEM STANNA QVAR HOS SIG OFVER NATTEN FOREBAR GUDINNAN EN ANGELAGEN RESA OCH AFLAGSNAR SIG V NESTOR IGENKANNER HENNE V TELEMACHOS SOFVER MED PEISISTRATOS FAR DAN FOLJANDE MORGON LANDVAGEN HANS SALLSKAP HVILAR OFVER NATTEN PHERAI OCH AFRESER TIDIGT VIDARE TILL MENELAOSFJERDE SANGEN V TELEMACHOS OCH PEISISTRATOS MOTTAGAS GASTFRITT AF MENELAOS HVILKEN SOM BAST FIRAR SIN SONS OCH SIN DOTTERS BROLLOP V DA MENELAOS RAKAT FORA TALET PA ODYSSEUS TRANGA SIG TARAR FRAM UR TELEMACHOS OGON EMEDAN HAN HAR SVART ATT DEM DOLJA MISSTANKER MENELAOS STRAX HVEM HAN AR OCH HELENA SOM TILLKOMMER PASTAR FREMLINGEN VARA FULLKOMLIGEN LIK ODYSSEUS V PEISISTRATOS SAGER ATT HON ALLDELES ICKE MISSTAGER SIG OCH VID ODYSSEUS MINNE OCH SAKNAD UTBRISTA ALLA GRAT V PEISISTRATOS BEDER ATT LYKTA GRATEN PA HVILKEN HELENA GENOM BAGRARNA INKASTADE TROLLMEDEL GOR FULLKOMLIGT SLUT OCH BERATTAR DERJEMTE ATT HON IGENKANNT ODYSSEUS EN GANG VID TILLFALLE DA HAN SASOM SPEJARE VAGAT SIG TROIA V MENELAOS OMTALAR HANDELSEN VID TRAHASTEN V DEREFTER FORFOGA SIG ALLA TILL SOFRUMMEN V OCH FOLJANDE DAGEN OMBEDD AF TELEMACHOS ATT FA HORA ALLT HVAD MENELAOS VISSTE OM HANS FADER FORTALJER DENNE HVAD PROTEUS EGYPTEN BEBADAT OM HELLENERNES HEMKOMST OCH OM ODYSSEUS PA KALYPSOS V BEDER DERJEMTE TELEMACHOS ATT DROJA QVAR NAGRA DAGAR OCH ERBJUDER PA HANS VAGRAN EN GASTSKANK V EMELLERTID STAMPLA FRIARENE FORSAT MOT DEN HEMVANDANDE TELEMACHOS V DERAS PLAN UPPTACKER MEDON PENELOPE SOM HOGELIGEN FORSKRACKT BEDER ATHENE OM HJELP OCH TROSTAS EN NATTLIG SYN V EMELLERTID LAGGA SIG FRIARENE FORSATFEMTE SANGEN V DA ATHENE GUDARNAS RADSFORSAMLING KLAGAR OFVER ITHAKESIERNES OTACKSAMHET MOT ODYSSEUS OFVER HANS QVARHALLANDE PA KALYPSOS OCH DET MOT TELEMACHOS UTSTALLDA FORSATET V BEFALLER ZEUS HENNE ATT HELBREGDA ATERFORA ODYSSEUS TILL HEMLANDET OCH HERMES ATT RESA TILL KALYPSO MED TILLSAGELSE OM ODYSSEUS FORLOSSNING V HERMES FORFOGAR SIG ALLTSA TILL OGYGIA MOTTAGES AF NYMFEN MED VALVILJA OCH BERATTAR SITT UPPDRAG V HVAREFTER KALYPSO VAL KLAGAR OFVER GUDARNES AFUNDSJUKA MEN LOFVAR ANDOCK ATT EJ LANGRE QVARHALLA ODYSSEUS V HERMES AFLAGSNAR SIG OCH KALYPSO BJUDER ODYSSEUS SOM SITTER PA HAFSSTRANDEN OCH TARES AF HEMLANGTAN ATT BYGGA EN FARKOST SJELF LOFVAR HON ALLA RESANS FORNODENHETER V DEN KLOKE OCH VARSAME KONUNGEN AFFORDRAR HENNE EN ED ATT HON EJ HEMLIGEN SKALL STAMPLA HANS OFARD HON AFLAGGER EDEN FOLJER HEM ODYSSEUS OCH FRAMSTALLER FORGAFVES RESANS FAROR V DAGEN DERPA BORJAR ODYSSEUS BYGGNADSARBETET HVILKET HAN SLUTAR PA DEN FJERDE OCH AFRESER DEN FEMTE DAGEN V EFTER SJUTTON DAGARS SEGLING DA SCHERIAS BERG REN SYNAS UPPVACKER DEN FRAN AITHIOPERNA HEMVANDANDE POSEIDAON EN FORSKRACKLIG STORM UR HVILKEN ODYSSEUS RADDAS AF LEUKOTHEA SOM SKANKER HONOM SIN HARBINDEL ODYSSEUS OFVERGIFVER FARKOSTEN ANKOMMER SIMMANDE NASTAN UTAN SANSNING AF TROTTHET TILL LAND VID EN FLODMYNNING OCH TILLBRINGAR DER NATTEN EFTER OMSTANDIGHETERNASJETTE SANGEN V MED AFSIGT ATT ODYSSEUS BEREDA VALVILLIGT MOTTAGANDE HOS ALKINOOS PHAIEKERNES KONUNG ERINRAR ATHENE EN DROM DESS DOTTER NAUSIKAA OM KLADTVATT V SEDAN ALLTSA FOLJANDE DAGEN NAUSIKAA MED SINA TARNOR AKIT TILL FLODSTRANDEN OCH KLADERNA BLIFVIT VANLIG ORDNING TVATTADE ROAR HON SIG MEDAN DE TORRKA MED BOLLSPEL V MEN DA BOLLEN GENOM ATHENES FORANSTALTANDE NEDFALLIT VATTNET OCH VID TARNORNAS ROP ODYSSEUS UPPVACKT UR SOMNEN AF NAUSIKAA BEGAR ATT HON GIFVA HONOM KLADER OCH VISA HONOM VAGEN TILL STADEN V SA VILLFAR HON DROTTENS BEGARAN OCH SANDER HONOM EN SKRUD SEDAN ODYSSEUS DENSAMMA PATAGIT SMYCKAS HAN AF ATHENE MED UTMARKT SKONHET SAMT VEDERQVICKER SIG MED MAT OCH DRYCK V DEREFTER BJUDER HONOM DEN HEMVANDANDE NAUSIKAA ATT ATFOLJA SIN VAGN TILLS DE HUNNIT ATHENES LUND OCH ATT DER QVARSTANNA SAMT SASNART HON KUNDE SYNAS LAND TILL SIN FADERS BONINGAR BEGIFVA SIG TILL DESAMMA OCH FORST HELSA HENNES MODERSJUNDE SANGEN V EFTER NAUSIKAA BEGIFVER SIG ODYSSEUS TILL STADEN OCH MOTER PA VAGEN ATHENE FORKLADD SAMT BEDER HENNE ATT VISA SIG KUNGABORGEN V DIT BELEDSAGAD OCH SEDAN HAN BEUNDRAT ALKINOOS PALATS OCH PARKER NALKAS HAN BONFALLANDE DROTTNINGENS KNAN OCH UNDFAGNAS HERRLIGEN MEN NAR OFRIGE GASTERNA BORTGATT IGENKANNER ARETE DE KLADER ODYSSEUS BAR OCH SPORJER HVADAN HAN KOMMER SAMT AF HVEM HAN DEM ERHALLIT V ODYSSEUS BERATTAR KORTELIGEN SIN RESAS MODOR OCH FAROR HVAREFTER KONUNGEN LOFVAR HONOM SKEPP OCH KAMRATER TILL HEMFARD ERINRANDE HONOM ATT GA TILL HVILAATTONDE SANGEN V ALKLNOOS BEFALLER UTRUSTA ETT SKEPP OCH HEMBELEDSAGA ODYSSEUS V DE TILL GASTBUD KALLADE DROTTAR SJUNGER EMELLERTID DEMODOKOS OM STRIDEN MELLAN ACHILLEUS OCH ODYSSEUS HVILKEN TARARNE FRAMBRISTA V SA SNART ALKINOOS MARKER HANS ANGSLAN UPPMANAR HAN DE SINA TILL KAMPALEKAR ATT VISA HVAD PHAIEKERNE GITTA SADANT AFSEENDE UTRATTA V NAR DESSA SLUTATS INBJUDER LAODAMAS KONGENS SON ODYSSEUS ATT AFVEN FORSOKA SIN LYCKA V MEN DA EURYALOS MED OTIDIGHET BEMOTER HANS URSAGT UPPTRADER ODYSSEUS TILL TAFLAN BESEGRAR PHAIEKERNA DISKOSKASTNING OCH UTMANAR DEM LAODAMAS UNDANTAGEN TILL ALLT SLAGS TAFLING V DERVID BLIFVA ALLE TYSTE OCH ALKINOOS SAGER ATT HANS MAN ENDAST FORSTA SIG PA KAPPLOPANDE SEGLING DANS OCH SANG V DEREFTER DANSA NAGRE UTVALDE YNGLINGAR MEDAN DEMODOKOS SJUNGER KYPRIS OCH ARES KARLEK V SEDAN ODYSSEUS AF PHAIEKERNA MED SKANKER BEHEDRAD BADAT SIG UTBRISTER HAN TARAR VID DEMODOKOS SANG MALTIDEN OM TROISKA HASTEN OCH TROIAS FORSTORING V DA ALKINOOS DETTA MARKER BEDER HAN ODYSSEUS SAGA HVEM HAN AR HVAR IFRAN HAN KOMMIT OCH HVARFORE HAN UTBRUSTIT TARARNIONDE SANGEN V SEDAN ODYSSEUS YPPAT SITT NAMN OCH FADERNESLAND V OMTALAR HAN DE VEXLANDE ODEN OCH OLYCKOR HVILKA HAN MED DE SINA HEMRESAN FRAN TROIA ALLTID VARIT UTSATT TILL EN BORJAN EROFRAR HAN VAL STADEN ISMAROS MEN BESEGRAS SEDAN AF KIKONERNA V DEREFTER DRIFVES HAN AF EN VID MALEIA UPPKOMMEN STORM TILL LOTOPHAGERNA V FRAN DEM KOMMER HAN TILL KYKLOPERNA QVARLEMNAR DE OFRIGA FOLJESLAGARENA PA EN NARA BELAGEN OCH BEGER SIG ATFOLJD AF ENDAST TOLF TILL POLYPHEMOS V DENNE UPPSLUKAR TRE MAL SEX AF KAMRATERNA MEN ODYSSEUS UTSTICKER KYKLOPENS ENDA OGA OCH RADDAR SIG MED STORSTA LIFSFARA DARIFRANTIONDE SANGEN V ODYSSEUS FORTSATTER BERATTELSEN HURUSOM HAN ANLAND TILL AIOLIA AF AIOLOS MOTTOG ALLA VINDARNA INNESLUTNA SACK MED UNDANTAG AF VESTAN SOM BORDE BRINGA HONOM HEM TILL ITHAKA V MEN DA HANS RESKAMRATER FORMODAN ATT FINNA DYRBARHETER OPPNAT SACKEN DRIFVES HAN AF DE UTSLUPPNA VINDARNA TILLBAKA TILL AIOLIA OCH AFFARDAS ONADIGT AF VADERGUDEN V DADAN KOMMER HAN TILL LAISTRYGONERNA FORLORAR HOS DEM ELFVA SKEPP MEN FLYKTAR MED DET ATERSTAENDE TILL AIAIA DER KIRKE BOR V ODYSSEUS SOM AF HERMES ERHALLIT SKYDDSMEDEL MOT KIRKES FORTROLLNINGAR FRESTAS AF HENNE TILL ALSKOG HVARAT HAN DOCK ICKE LEMNAR GEHOR INNAN HON MED ED LOFVAT ATERGIFVA HANS SNOPLIGT FORVANDLADE KAMRATER MENSKLIG SKEPNAD V EFTER ETT ARSVISTELSE PA BEGAR HAN OCH ERHALLER AF KIRKE TILLSTAND ATT AFRESA HEMAT MEN UNDERRATTAS DERJEMTE ATT HAN ENLIGT ODENAS BESLUT DESSFORINNAN MASTE BESOKA UNDERJORDEN OCH RADFRAGA TEIRESIAS V MEDAN DE ANDRE SKYNDA TILL SKEPPET NEDFALLER ELPENOR FRAN ETT TAK OCH DORELFTE SANGEN V ODYSSEUS SEGLAR MED GYNNANDE VIND SOM HAN AF KIRKE UNDFATT TILL KIMMERIERNE OCH OKEANOS V EFTER FULLBORDADT OFFER INFINNA SIG DE AFLIDNES VALNADER HVILKA ODYSSEUS DOCK VAGRAR ATT DRICKA AF BLODEN FORRAN HAN RADFRAGAT TEIRESIAS V FORST FRAMTRADER NU VALNADEN AF ELPENOR ANHALLANDE OM BEGRAFNING V SEDAN KOMMER ODYSSEUS MODER ANTIKLEIA V FOLJER SA SAMTALET MED TEIRESIAS V OCH MED BESAGDE ANTIKLEIA V ENAR HON SIG AFLAGSNAT FRAMTRADA FLERA HEROINOR DEN ENA EFTER DEN ANDRA V HARVID AFBRYTER ODYSSEUS BERATTELSEN MEN FORTSATTER STRAX ATER OMBEDD AF ALKINOOS V VIDARE FOLJER SAMTALET MED AGAMEMNONS V OCH MED ACHILLEUS VALNAD V FORGAFVES TILLTALAR ODYSSEUS TELAMONIERN AIAS V DEREFTER FAR HAN SKADA MINOS MED FLERA V MEN DA STORA SKAROR AF VALNADER NALKAS RADES HAN ATT PERSEPHONEIA SKALL TILLSANDA HONOM DET GORGEISKA HUFVUDET HVARFORE HAN ATERVANDER TILL SITT SKEPP OCH AFRESERTOLFTE SANGEN V SEDAN ODYSSEUS FRAN OKEANOS ATERKOMMIT TILL AIAIA BEGRAFVER HAN ELPENOR V KIRKE BERATTAR HONOM DEN FORESTAENDE RESANS FARLIGHETER V AF HVILKA HAN DOCK EJ LATER SIG SKRAMMAS UTAN LOSSAR GALEJAN MUNTRAR UPP KAMRATERNA V OCH UNDSLIPPER FORST LYCKLIGEN SERENERNA V SAMT RADDAS DEREFTER FRAN SKYLLA OCH CHARYBDIS MED FORLUST LIKVAL AF SEX KAMRATER V FORGAFVES AFRADER HAN DE OFRIGA ATT LAGGA TILL VID SOLENS V SAMT SOKER ATMINSTONE INTALA DEM ATT SKONA SOLENS BOSKAPSHJORDAR V ICKE DESTOMINDRE SLAKTA DESSE PA EURYLOCHOS INRADAN OCH PLAGADE AF HUNGER NAGRA OXAR MEDAN ODYSSEUS SOFVER V DA NU ZEUS BEVEKT AF SOLGUDENS BONER LOFVAT HAMNAS V FORTFARA KAMRATERNE LIKVAL ATT ATA AF DET HELIGA KOTTET V DERPA ANLANDER ODYSSEUS EFTER EN FORSKRACKLIG STORM OCH SKEPPSBROTT HVARVID ALLE KAMRATERNE DRUNKNA HELT ENSAM TILL OGYGIA DER KALYPSO BORTRETTONDE SANGEN V YTTERLIGARE AF PHAIEKERNA MED SKANKER IHAGKOMMEN TAGER ODYSSEUS MOT QVALLEN FARVAL AF ALKINOOS OCH ARETE STIGER OMBORD DET HANS RAKNING UTRUSTADE SKEPPET OFVERVALDIGAS AF EN STILLA SOMN OCH UTSATTES EFTER HASTIGT FULLANDAD RESA PA ITHAKAS STRAND V POSEIDAON FORVANDLAR TILL STEN ICKE LANGT FRAN SCHERIA DET ATERVANDANDE SKEPPET MEN PHAIEKERNE BLIDKA HONOM MED ETT OFFER V OMSIDER VAKNAR ODYSSEUS OCH DA HAN SKRAMD OCH RADVILL ICKE IGENKANNER FOSTERLANDET MOTES HAN AF GUDINNAN ATHENE SOM FORST SKEPNADEN AF EN UNG HERDE BERATTAR HONOM ATT DENNA AR DET DJUPT SAKNADE ITHAKA MEN SEDERMERA QVINNOGESTALT UPPTACKER HVEM HON EGENTLIGEN AR UNDANGOMMER NYMFERNAS GROTTA HANS DYRBARHETER LAR HONOM SATTET ATT DODA FRIARENA SAMT LOFVAR ANDTELIGEN ATERFORA TELEMACHOS V DEREFTER ATT GORA ODYSSEUS DESTO META OIGENKANNELIG OMBILDAR HON HONOM ALLDELES OCH HOLJER HONOM UTI EN TIGGARGUBHES DALIGA KLADERFJORTONDE SANGEN V SVINHERDEN EUMAIOS MOTTAGER GASTFRITT SIN TIGGARESKEPNAD FORDOLDA HUSBONDE V HVILKEN FORGAFVES SOKER OFVERTALA HONOM SOM KLAGAR OFVER FRIARENES OFORRATTER OCH LANGTAR EFTER SIN ALSKADE HUSBONDE ATT DENNE NANSIN MER SKALL ATERKOMMA V SEDAN ODYSSEUS HOPDIKTAT EN HISTORIE OM SINA UNDERBARA ODEN BERATTAR HAN EUMAIOS HVAD HAN DERJEMTE ERFARIT OM DESS HUSBONDES ATERKOMST V SAMT SOKER OFVERTYGA DEN TVEKANDE SALUNDA ATT HAN BETINGAR SIG BELONING IFALL HAN TALAT SANNING OCH UNDERKASTAR SIG DODEN IFALL HAN LJUGIT V EUMAIOS SLAKTAR DEREFTER ETT GODSVIN OFFRAR GUDARNA OCH BJUDER ODYSSEUS TILL QVALLSVARD V DENNE LAGGER SIG DERPA TILL HVILA MED DE OFRIGA HERDARNA V MEN EUMAIOS VANDRAR AF TILL SVINSTALLENFEMTONDE SANGEN V AF GUDINNAN ATHENE ERINRAS TELEMACHOS OM HEMRESA UNDFAGNAS AF MENELAOS OCH HELENA MED SKANKER V SAMT SKILJES GODTJARTECKEN IFRAN DEM V NATTEN TILLBRINGAR HAN PHERAI HOS DIOKLES V FOLJANDE DAG UTAN ATT UPPEHALLA SIG MED BESOK PYLOS TAR HAN FARVAL AF PEISISTRATOS OCH GAR OMBORD PA SITT SKEPP DETSAMMA INFINNER SIG DEN ARGEISKE SIARN THEOKLYMENOS SOM BEGAR OCH ERHALLER TILLSTAND ATT GORA RESSALLSKAP V EMELLERTID BERATTAR DERHEMMA EUMAIOS SINA FORDNA ODEN ODYSSEUS V TELEMACHOS LANDAR VID EN FRAN STADEN AFLAGSEN KUST PA ITHAKA OCH AFFARDAR THEOKLYMENOS TILL EURYMACHOS V DEREFTER RESA DE OFRIGE SJOLEDES TILL STADEN MEN TELEMACHOS VANDRAR AF TILLFOTS ATT UPPSOKA EUMAIOSSEXTONDE SANGEN V TELEMACHOS MOTTAGES AF EUMAIOS MED MYCKEN GLADJE OCH VALVILJA V OCH SAMTALAR MED ODYSSEUS HVILKEN HAN LIKVAL EJ IGENKANNER SIN FADER V DEREFTER BEDER HAN EUMAIOS GA TILL PENELOPE OCH BERATTA OM SIN HEMKOMST V NAR HERDEN AFLAGSNAT SIG SYNES PALLAS ODYSSEUS MED BEFALLNING ATT HAN EUMAIOS BORTAVARO UPPTACKA SIG TELEMACHOS V DETTA SKER OCH FAR OCH SON RADPLAGA ANGAENDE FRIARNES NEDGORANDE V EMELLERTID ANLANDA TELEMACHOS FOLJESLAGARE TILL STADEN HVILKET HOGELIGEN FORVANAR DE FORSATLIGA FRIARENA SOM UPPGORA ANDRA PLANER HANS MORDANDE MOTSAGDA LIKVAL AF AMPHINOMOS V PENELOPE FOREBRAR FRIARENA DERAS ANSLAG EMOT TELEMACHOS OCH TROSTAS AF EURYMACHOS V EUMAIOS ATERKOMMER UTAN ATT ANNU IGENKANNA SIN KONUNG OCH HERRE ODYSSEUSSJUTTONDE SANGEN V FOLJANDE MORGON GAR TELEMACHOS TILL STADEN SAMT HELSAR EURYKLEIA OCH SIN MODER HVILKEN GOR LOFTEN GUDARNA V DEREFTER ONSKA DE FALSKE FRIARNE HONOM LYDA TILL SIN ATERKOMST OCH HAN EMOTTAGER THEOKLYMENOS BELEDSAGAD AF PEIRAIOS V EMELLERTID OCH DET FRIARNE GASTA LEDSAGAS ODYSSEUS TILL STADEN AF EUMAIOS V DEN TROGNE HUNDEN ARGOS V FRIARNES ISYNNERHET ANTINOOS SKANDLIGA UPPFORANDE MOT DEN FORMENTE TIGGAREN V EUMAIOS ATERVANDER TILL STALLENADERTONDE SANGEN V ODYSSEUS BESEGRAR KNYTNAFVESTRID TIGGAREN IROS SOM OFVERFALLIT HONOM MED STICKORD V HAN VARNAR AMPHINOMOS OFVERMOD OCH ODYSSEUS HAMD IFALL DROTTEN ATERVANDER V PENELOPE TILLTALAR SIN SON OCH SINA FRIARE HVILKA TJUSTE AF HENNES SKONHET TILLSANDA HENNE SKANKER V EMELLERTID SKYMFAS ODYSSEUS AF TARNAN MELANTHO OCH AF FRIARNE BLAND HVILKA EURYMACHOS KASTAR EFTER HONOM MED SIN FOTPALL V PA TELEMACHOS ERINRAN GA FRIARNE TILL SANGSNITTONDE SANGEN V SEDAN VAPNEN BLIFVIT UR SALEN BORTBURNA ETT ANNAT RUM STANNAR ODYSSEUS ENSAM QVAR OCK BJUDER SIN SON GA TILL HVILA V ATERIGEN SKYMFAD AF TARNAN MELANTHO BANNAR HAN HENNE STRANGELIGEN V PENELOPE SAMTALAR MED ODYSSEUS V HVILKEN BADET IGENKANNES AF EURYKLEJA V ODYSSEUS BEDER HENNE VARA TYST MED UPPTACKTEN V PENELOPE BERATTAR SIN DROM ODYSSEUS MED TILLKANNAGIFVANDE ATT HON ARNADE TILL MORGONDAGEN UTSATTA EN TAFLINGSSTRID FRIARENA SAMT AKTA DEN SOM KUNDE SPANNA ODYSSEUS BAGE OCH SKJUTA MED PILEN GENOM OGAT PA TOLF EFTER HVARAN UPPSTALLDA YXAR V SEDAN ODYSSEUS GILLAT FORSLAGET GAR PENELOPE BORT TILL HVILATJUGONDE SANGEN V ODYSSEUS SOM HVILAR FORSALEN BEMARKER TARNORNAS FRACKHET V ATHENE TROSTAR HONOM V OM MORGON BITTIDA VACKT AF PENELOPE KLAGAN BEGAR HAN OCH ERHALLER AF ZEUS ETT LYCKOSAMT JARTECKEN V SEDAN TELEMACHOS TILLSPOTT EURYKLEIA OM HON VAL UNDFAGNAT FREMLINGEN BEGIFVER HAN SIG TILL TORGS HVAREMOT HON TILLREDER MALTID FRIARENA V TILLKOMMA EUMAIOS MELANTHIOS OCH PHILOITIOS V FRIARENES PLAN ATT DRAPA TELEMACHOS TILLINTETGORES V UPPTRADET MED KTESIPPOS V SEDAN AGELAOS SOKT FORMA TELEMACHOS ATT TILL HANS FORDEL INVERKA PA SIN MODER UPPSKRAMMAS FRIARENE GENOM OLYCKSFOREBUD DEN THEOKLYMENOS FORKLARAR V TELEMACHOS GACKAS AF FRIARENA MEN ATERHALLER SIN HARM OCH AFVAKTAR DEN SNART INTRAFFANDE HAMDENTJUGONDEFORSTA SANGEN V PENELOPEIA FORESLAR SAMTLIGA FRIARNE EN TAFLINGSSTRID SAMT LOFVAR AKTA DEN SOM GITTER SPANNA ODYSSEUS BAGE OCH SKJUTA MED PILEN GENOM OGAT PA TOLF EFTER HVARAN UPPSTALLDA YXAR V TELEMACHOS SJELF SKULLE VID FJERDE FORSOKET LYCKATS ATT SPANNA BAGEN OM EJ ODYSSEUS DET FORHINDRAT V MEN DA SAMTLIGE FRIARNE ANSTRANGT SIG FORGAFVES GAR ODYSSEUS UT MED EUMAIOS OCH KOHERDEN UPPTACKER HVEM HAN AR ANORDNAR OM HVAD SOM BOR GORAS OCH UTLOFVAR BELONING V DA NU AFVEN EURYMACHOS GJORT ETT FRUKTLOST FORSOK FORESLAR ANTINOOS UPPSKOF TILL MORGONDAGEN V ODYSSEUS BEGARAN ATT AFVEN FA PROFVA SIN LYCKA AFSLAS HOGMODIGT AF SAMME ANTINOOS V MEN GENOM PENELOPES OCH TELEMACHOS BEMEDLING OFVERLEMNAS DOCK BAGEN ODYSSEUS DORRARNE STANGAS ODYSSEUS SPANNER SIN BAGE OCH SKJUTER PILEN GENOM OGAT PA ALLA YXARNA V HAREFTER RUSTA SIG FADER OCH SON TILL FRIARNES NEDERLAGTJUGONDEANDRA SANGEN V SEDAN ODYSSEUS FRIARNE ROJT SIG OCH HOTAT ATT HAMNAS LIDNA OFORRATTER BORJAS NEDERLAGEN OCH DEN FORSTA PILEN TRAFFAR ANTINOOS V DEREFTER DODAS EURYMACHOS V TELEMACHOS SOM DODAT AMPHINOMOS AFHEMTAR VAPEN FRAN ETT ANNAT RUM HVARS DORR HAN EJ VAL LASER MELANTHIOS PASSAR ALLTSA PA TILLFALLET OCH BRINGAR AFVEN FRIARNE VAPEN V GRIPEN AF DE TROGNA TJENARENA BLIR HAN HANGD V ATHENE MANAR ODYSSEUS TILL MODIG STRID V NU NEDGORAS FRIARENE ALLA ENDAST PHEMIOS OCH MEDON SKONAS V ODYSSEUS BJUDER ATT LIKEN SKOLA UTBARAS V TARNORNAS OCH MELANTHIOS STRAFF V DE REDLIGT SINNADES GODA MOTTAGNINGTJUGONDETREDJE SANGEN V EURYKLEIA BERATTAR PENELOPE ATT HENNES MAKE HEMKOMMIT OCH DODAT FRIARENA HVILKET HON ICKE TROR V OMSIDER NEDSTIGER HON DOCK MATSALEN OCH TAGER PLATS MIDTEMOT ODYSSEUS HVILKEN HON EJ VAGAR TILLTALA V TELEMACHOS OGILLAR MEN ODYSSEUS URSAKTAR SADANT FORFARANDE V SAMT BEFALLER ATT TILL UNDVIKANDE AF OTIDIGT KRINGSPRIDT RYKTE OM FRIARNES NEDERLAG ANSTALLA GLADA DANSER PALATSET V TVATTAD OMKLADD OCH AF PALLAS FORSKONAD IGENGANNES ODYSSEUS ANDTLIGEN AF SIN GEMAL V MED HVILKEN HAN SAMTALAR OM FORDNA OCH KOMMANDE TIDER V FOLJANDE DAG VANDRAR HAN TILL SIN FADER LAERTESTJUGONDEFJERDE SANGEN V TILL UNDERJORDEN BELEDSAGAR HERMES FRIARENES SKUGGOR SOM MOTAS BLAND ANDRA AF ACHILLEUS OCH AGAMEMNON V UPPA TILLFRAGAN BERATTAR AMPHIMEDON OM DET FRUKTLOSA FRIERIET TILL PENELOPE OCH DET AF ODYSSEUS UTFORDA NEDERLAGET V EMELLERTID RAKAR ODYSSEUS SIN FADER OCH OFVERTYGAR HONOM GENOM SAKRA TECKEN ATT HAN AR DEN RATTE SONEN DEN AF GLADJE NASTAN SANSLOSE LAERTES VEDERQVICKES AF ATHENE OCH INBJUDES TILL MALTID V FASTAN AFRADDE AF MEDON OCH HALITHERSES RUSTA SIG FRIARENES ANFORVANDTER TILL HAMD V MEN PA ATHENES INRADAN GORES ANDA PA STRIDEN OCH FORMELIG FRED AFSLUTASLECTUROVERGENTE AD FINEM ANNO ADGREDIEBAMUR DISSERTATIONIBUS ACADEMICISEDITIONEM PUBLICUM DARE HOMERICAE ODYSSEAE GRAECE ET SVETHICENOTIS INSTRUCTAM BREVISSIMIS ET QUIDEM FORMA QUARTA CONTINUABAMUSOPUSCULUM NOBISMET CERTE GRATUM NEQUE COMMITIONIBUS NON ACCEPTUMINTERPOSITIS NONNULLIS QUOQUE ALIIS STUDIORUM DELICIIS USQUE AD ANNUMTRISTISSIMI INCENDII MEMORI QUEM MENTE DOLEMUS OMNIA VASTANTISET VORANTIS QUIESCEBANT DEIN AMOENSE CURAE DONEC ODYSSEAM NOSTRAMDE NOVO LICERET ADORIRI REFIUGIMUS VERO JAM ANTEA EDITA FORMAMMUTAMUS GRAECUM MITTIMUS CERTUM ET NOTULAS PRIOR METAPHRASISEXTENDEBATUR AD QUARTAE RHAPSODIAE VERSUM QUAE DEIN SEQUENTUR SUNTPOSTERIORIS CURAE QUAM UTQUE ANTECEDENTIBUS DESIDERARI VELEMUSABSOLVETUR ODYSSEAE HAEC NOVA EDITIO PER TOMOS QUATUORFORSTA SANGEN SANGMO SJUNG MIG DEN MAN MANGVANDRAREN HVILKEN SA LANGE VANKADE SEN HAN TROIA FORSTORT DEN HELIGA STADEN MANGA MENNISKORS BYGDER BESAG HAN OCH LYNNEN SIG LARDE MANGA SMARTOR JEMVAL UTSTOD SITT HJERTA PA HAFVET AFLANDE SITT LIF OCH RESKAMRATERNAS HEMKOMST RESKAMRATERNA DOCK EJ FRALSTE DEN FIKSAME SA ENS TY MED SITT OFVERDAD SIG SJELFVA BEREDDE DE DODEN DARLIGE HVILKA HYPERIONS SONS EELIOS OXAR ATO MEN HEMKOMSTDAGEN DEM OCK DERFOR HAN BORTTOG SANGMO SJUNG NU OSS ZEUS DOTTER NAGOT AF DETTA VORO SA ALLE DE ANDRE SOM UNDGATT BRADA FORDERFVET HEMMA NUREN SEN KRIGET OCH SJON DEM LYCKATS ATT UNDGA MEN VAR HJELTE ALLENA SAKNAD AF MAKA OCH HEMKOMST HOLL DEN VORDIGA NYMFEN GUDINNORS GUDINNA KALYPSO GILJANDE SIG TILL GEMAL QVAR DE HALIGA GROTTOR MEN DA NU VID OMVALFVANDE AR DEN TIDEN VAR INNE HVILKEN HONOM BESTAMMTS AF GUDAR ATT LANDA TILLBAKA HEM TILL ITHAKA DER EJ SKULLE HAN MODORNA UNDGATT FAST HOS VANNERNA STADD MEN GUDAR SIG OMKADE ALLE UTOM POSEIDAON SOM VAR FORSKRACKLIGEN UPPBRAGT MOT GUDMAKEN ODYSSEUS FORRAN HAN HUNNE SIN HEMJORD TILL AITHIOPERNAS LAND VAR HAN FAREN DET FJERRAN BELAGNA HAN TILL DE AITHIOPEER SOM TVEDELT YTTERST BLAND MENSKOR BO DER HYPERION SJUNKER EN DEL EN ANN DER HAN UPPGAR ATT MOTTAGA HOS DEM HEKATOMBEN AF TJURER OCH GUMSAR DER HAN TILL MALTIDS SATT SIG FAGNANDE MEDAN DE ANDRE HADE UTI ZEUS SALAR OLYMPIERNS SAMLAT SIG ALLE DA BEGYNTE ATT ORDA DE DODLIGES FADER OCH GUDARS TY SALEN HAN SIG PAMINNTE DEN BALDE AIGISTHOS SOM AGAMEMNONIDES VIDTFREJDAD ORESTES IHJELSLOG HONOM MINDES HAN NU OCH IBLAND ODODLIGA TALTE HM HUR DE DODLIGE DOCK ANDRAGA MOT GUDARNA KLAGMAL TY ATT DET ONDA FRAN OSS HAR FLYTER DE YRKA MEN SJELFVE GENOM SITT OFVERDAD DE HAFVA MOT ODET BEKYMMER AKTANDE SA MOT ODET AIGISTHOS AFVEN ATREIDENS VIGDA GEMAL OCH KONUNGEN SJELF HEMLANDANDE DRAPTE VETANDE BRADT FORDERF VI BEBADADE HONOM PA FORHAND SANDANDE HERMEIAS VALSPEJANDE ARGOSDODARN ATT EJ KONUNGEN MORDA ATT EJ HANS MAKA BEGARA TY AF ORESTES HAMD SKALL VEDERFARAS ATREIDEN NAR FULLVUXEN HAN BLIR OCH LANGTAR TILL FADERNELANDET ORDADE SA HERMEIAS MEN EJ AIGISTHOS BEVEKTE FAST HAN MENADE VAL NU ALLT HAN RIKLIGEN UMGALLT HONOM SVARTE DERPA KLAROGDA GUDINNAN ATHENE DU VAR ALLES FAR KRONIDES AF KONUNGAR YPPERST DENNE MINSANN FORTJENTE DEN DOD HAN DUKADE DESSLIKES EN ANNAN FORGAS HO SADANT BEDRIFVER MEN MITT HJERTA LAGAR AF SORG DEN VISE ODYSSEUS OLYCKSMANNEN SOM LIDER BETRYCK FRAN VANNERNA FJERRAN PA KRINGFLUTEN EN DER HAFVETS NAFLE BEFINNES SKOGBEVUXEN AR EN GUDINNA SALARNA VISTAS DOTTER UTAF ALLKUNNIGE ATLAS SOM DJUPEN HAFVET SAMTLIGA VET OFVERALLT SAMT SJELF DE HOGA KOLONNER UPPBAR SOM FRAN HVARAN ATSKILJA JORDEN OCH HIMLEN DOTTREN AF DENNE HOS SIG QVARHALLER DEN SORJANDE OMKLING STADS DERJEMTE MED SOTA OCH SMILANDE ORDEN HON SMEKER HONOM ATT HAN GLOMMA SITT ITHAKA TVERTOM ODYSSEUS LANGTANDE FA HELST SKADA DEN ROK SOM HVIRFLAR HOJDEN HANS FADERNELAND TILLONSKAR SIG DODEN EJ NU ENS BOJS DITT SINNE OLYMPIER HAR ICKE ODYSSEUS VID ARGEIERNAS SKEPP DIG FAGNAT MED GARDEN AF OFFER FORDOM TROERS RYMLIGA LAND HVI VREDGAS DU SA ZEUS HENNE TILL SVAR GENMALTE DEN MOLNHOPSKOCKANDE GUD ZEUS DOTTER MIN HVAD ETT ORD DIG FLYDDE UR TANDERNAS STANGSEL SKULLE VAL JAG HA NANSIN FORGLOMMT DEN ADLE ODYSSEUS HVILKEN KLOKSKAP VINNER DE DODLIGE VINNER OFFER TILL ODODLIGA GUDAR SOM BO HIMMELENS RYMDER MEN NU POSEIDAON JORDFAMNARN AR STADSE BESTANDIGT VRED KYKLOPENS SKULL SOM DROTTEN BEROFVADE OGAT POLYPHEMOS DEN TROTTSIGE BEST HVARS KRAFT AR DEN STORSTA BLAND KYKLOPERNAS FLOCK HANS MOR AR NYMFEN THOOSA DOTTER TILL PHORKYN KONG DET OFRUKTBARANDE HAFVET MED POSEIDAON ALSKOGFORENT DE HALIGA GROTTOR FRAN DEN TIDEN POSEIDAON JORDSKAKARN EJ DODAR MEN DOCK JAGAR OMKRING FRAN FADERNEJORDEN ODYSSEUS NU DA VALAN VI HAR ALLSAMTLIGEN OFVER HANS HEMKOMST RADSLA HURU DEN SKER POSEIDAON OCK SIN FORBITTRING LATER FARA HAN ICKE FORMAR DA EJ GUDARNE MEDGE MOT ODODLIGA ALLA SIN TVIST UTFORA ALLENA HONOM SVARTE DERPA KLAROGDA GUDINNAN ATHENE DU VAR ALLES FAR KRONIDES AF KONUNGAR YPPERST OM NU DETTA SANNING AR KART DE SALIGA GUDAR ATT TILL SITT EGET HEM FAR LANDA DEN VISE ODYSSEUS SANDOM DA HERMEIAS BUDBARAREN ARGOSDODARN HAN TILL OGYGIAS ATT HAN MATTE SA FORT SOM AR MOJLIGT VART ORYGGLIGA RAD SKONLOCKIGA NYMFEN FORKUNNAS HEMKOMST TALSINNTA ODYSSEUS ATT HEM HAN KOMMA JAG DEREMOT MIG BEGIFVER TILL ITHAKA ATT JAG SONEN MER ANMANA OCH MOD INGIFVA HONOM SINNET ATT HAN TILL RADSLAG KALLE DE HUFVUDFAGRE ACHAIER OCH FORVISE DEN FRIARETROPP SOM HITTILLS BESTANDIGT SLAKTAR HANS FAR OCH JEMVAL FOTSLAPANDE HORNADE KORNA VILL OCK SANDA TILL SPARTA OCH TILL SANDMARKIGA PYLOS ATT UTFORSKA OM NAGOT FORSPORTS OM FADRENS IGENKOMST SAMT SIG STATELIGT NAMN BLAND MENSKOR DERJEMTE FORVARFVA TALANDE SA VID FOTTREN HON BANDT DE KOSTLIGA GYLLNE HIMMELSKA SKOR SOM HENNE BAD UTOFVER HAFVET OCH AFVEN DEN OMATLIGA JORD HANBURO KAPP MED EN VINDFLAGT TOG SIN VALDIGA LANS MED VATTJADE KOPPARN BESLAGEN TUNG OCH KRAFTIG OCH STOR MED HVILKEN HON HJELTARNES LEDER TUKTAR PA HVILKA SOM HELST HON AR VRED HOGBORNA GUDINNAN SEDAN HASTANDE FART NEDSTEG HON FRAN HIMMELENS KLINTER STOD SA HOS ITHAKAS FOLK FARSTUN STRAX HOS ODYSSEUS PA GARDSTROSKLEN OCH HADE HAND KASTSPJUTET AF KOPPAR TAGANDE SKEPNAD AF TAPHIERS DROTT GASTFREMLINGEN MENTES DER ANTRAFFADE HON DE TROTTSIGA FRIARNE HVILKA UTANFOR DORRARNA NU FORLUSTADE SINNET MED TERNING SITTANDE ALLA PA HUDAR AF DEM SJELFVE DE SLAKTAT MEN HEROLDER DEM OCH OFORTRUTNE BETJENTER SOMLIGE BLANDADE VATTEN MED VIN KRATERERNA SAMMAN SOMLIGE ATERIGEN MED DE PIPIGA SVAMPARNA BORDEN TVAGDE OCH STALLDE DEM FRAM SAMT DELADE RIKLIGA KOTTET HENNE AF ALLA DA FORST GUDLIKE TELEMACHOS MARKTE TY BLAND FRIARNE SATT HAN INNERSTA HJERTAT BEKYMRAD SKADANDE FADREN DEN BALDE TANKARNA HURU HAN HEMLAND MANDE BLAND FRIARNES FLOCK ANSTALLA HUSET FORSKINGRING ARAN BEHALLA SIG OCH OM EGNA BESITTNINGAR RADA TANKANDE SA BLAND FRIARNE SATT HAN OCH MARKTE ATHENE GICK SA FARSTUN UT OCH FORGRYMMADE SIG SITT SINNE ATT DEN FREMMANDE STOD VID DORRARNA LANGE OCH NARMAD HOGRA HANDEN HAN TRYCKTE OCH LANSEN AF KOPPAR EMOTTOG OCH TLLLTALADE HENNE OOH SADE BEVINGADE ORDEN HELL DIG FREMLING AF OSS VANSKAPLIGT DU HELSAS MEN SEDAN NAR DU VID BORDET AR MATT LAT SE HVAD DIG GORES BEHOF AF SADE OCH GICK SA FORNT OCK FOLJDE NU PALLAS ATHENE MEN DA DE INTRADT BADA UTI DET HOGA PALATSET SEN FORDE HAN FRAM OCH STALDE MOT LANGA KOLONNEN INOM DET VALOMBONADE SKRANK DER AFVEN DE ANDRA LANSAR STODO MANGD TALMODIGE DROTTEN ODYSSEUS HENNE HAN LEDDE TILL THRONEN OCH BREDDE INUNDER EN KONSTGJORD KOSTELIG DUK VAR AFVEN EN PALL FOTTERNA ANBRAGGT SJELF BREDEVID SIN PYNTADE STOL HAN STALLDE FRAN ALLA FRIARNE SKILD ATT ICKE HANS GAST AF STOJET BESVARAD MATTE VID MATEN LEDAS LAG MED DE TROTTSIGA BJESSAR OCH ATT SPORJA JEMVAL OM SIN BORTAVARANDE FADER MEN TVATTVATTEN SKALN IHALLDE EN TARNA OCH FRAMBAR DEN SKONA OCH GYLLNE UPPA TVATTFATET AF SILFVER VATTNET OCH DUKADE DER BREDEVID DET FEJADE BORDET ARBARA SKAFFERSKAN HEMTADE BROD OCH SATTE GASTEN SAMT MANG RATTER DERTILL AF ALLT HVAD HUSET FORMADDE FORESKARARN PA FAT UPPLADE OCH HEMTADE ALLT SLAGS KOTT OCH STALLDE DEM BREDEVID DE GYLLENE BAGRAR GICK SA EN HEROLD OFTA OCKSA IHALLANDE VINET TROTTSIGE FRIARNE TRADDE NU OCH ALLE PA STUNDEN TOGO SIG PLATS ORDENTELIGT SKICK PA BANKAR OCH STOLAR DEM HEROLDERNE DA TVATTVATTEN PA HANDERNA HALLDE MEDAN KORGARNA BROD TJENSTFLICKORNA RAGADE OMNIGT OCH TILL DE FARDIGA RATTER SOM VANKADES HANDREN DE RACKTE GOSSAR DERJEMTE OCKSA VINBALARNA RIKLIGEN FYLLDE MEN LYSTMATET TILL DRYCK OCH TILL MAT NAR ANDTLIGEN UNDFATT FRIARESKARAN PA ANNAT BEGYNTE DA HAGEN ATT LEKA BADE PA SANG OCH PA DANS SOM ARO KALASERNAS SMYCKEN LADE NU DERFOR HEROLDEN PHEMIOS HANDER DEN GRANNA CITTRAN OCH HAN BLAND FRIARNE SJONG ALLENAST AF NODTVANG SALEDES SPELANDE STAMDE HAN UPP ATT HERRLIGEN SJUNGA MEN TELEMACHOS TALTE DA TILL KLAROGDA ATHENE HALLANDE HUFVUDET NARA ATT EJ DE ANDRE DET HORDE FREMLING SA KAR SAG VREDGAS DU VAL ORDEN JAG SAGER HAGEN LEKER DESSA PA SLIKT NA SANGER OCH STRANGSPEL LATT FORTY DE EN ANN MANS GODS ONAPPSTE FORTARA HVILKENS HVITNADE BEN KANHANDA FORMULTNA REGNET VRAKTA LAND ELLER OCK KRINGVALTRAR VAGEN HAFVET SAGE DE HONOM EN DAG TILL ITHAKA ATERKOMMEN ALLE DE ONSKADE SIG ATT SNABBARE VARA PA FOTTREN FORMOGNARE VARA PA KLADER OCH GULL HELT SAKERT NU SITT OLYCKSODE HAN DOG OSS FINNS EJ EN ENDA TROST MER FAST OCK NAGON AF JORDBEBOENDE MENSKOR SADE ATT HAN SKALL KOMMA HANS HEMKOMSTDAG AR FORLORAD MEN DU VALAN MIG DETTA FORTALJ OCH NOGA BERATTA HO HVARIFRAN AR DU HVAR AR DIG STAD OCH FORALDRAR PA HVAD SKEPP AR DU HIT ANKOMMEN OCH HURU HA SJOMAN DIG TILL ITHAKA BRAGT HVAD TRO DE SIG VARA KARLAR TY JAG FORMODAR EJ ALLS ATT DU HIT FOTGANGARE KOMMIT DETTA MIG SANNFARDIGT BERATTA ATT VAL JAG VETA OM DU FORSTA GANGEN AR HAR ELLER REDAN MIN FADERS GASTVAN TY MANG MANNER FORUT PAHELSADE VART HUS ANDRE OCKSA FORTY UMGANGSAM MED MENSKOR VAR DENNE HONOM TALTE DA TILL KLAROGDA GUDINNAN ATHENE SANNERLIG SKALL DIG DETTA JAG HOGST NOGGRANNLIGEN SAGA MENTES DEN INSIGTSFULLE ANCHIALOS SON JAG MIG SKRYTER VARA OCH KONUNG DERHOS DE TAPHISKA RODDAREBUSSAR PA STUNDEN JAG NU ANLANDE MED SKEPP OCH KAMRATER SEGLANDE OFVER DEN MORKNANDE SJON TILL FREMMANDE MENSKOR EFTER KOPPAR TILL TEMESA JERN DET BLANKA JAG MEDHAR SKEPP MITT STAR NU DERBORTA VID LANDET FJERRAN FRAN STADEN DET SKOGIGA NEIONBERG HAMNEN VID RHEITHROS MEN GASTVANNER FRAN FADERNAS TID VI SKRYTE OSS VARA FRAN URMINNES OM OCK DU GINGE OCH FRAGTE DEN GAMLA DROTTEN LAERTES OM HVILKEN DE SAGA ATT ALDRIG TILL STADEN MER HAN KOMMER MEN ENSAM AF KRAMPOR PA LANDET BESVARAS JEMTE EN GAMMAL GUMMA SOM MAT HONOM OCH DRICKA FRAMBAR STADS NAR TROTTHETEN HARDT ANGRIPIT HANS FOTTER MODSAMT KRALANDE KRING PA DET VALOMANSADE VINBERG NU HITKOM JAG FORTY MAN SADE ATT FAR DIN AR HEMSTADD REN MEN GUDARNE HONOM ANNU FORHINDRA FRAN HEMKOMST TY HELT SAKERT EJ DOTT PA VAR JORD DEN ADLE ODYSSEUS UTAN LEFVANDE QVARHALLS HAN PA VILLANDE HAFVET UPPA EN KRINGSKOLJD AF ELAKA MANNER OCH VILDA HINDRAD HVILKA HO VET OVILLIGA DROTTEN BEHALLA MEN NU SKALL JAG DIG SPA SANNFARDLIGEN SASOM SINNET MIG ODODLIGE LAGGA OCH SASOM JAG MENAR DET HANDER FAST JAG EJ SPAMAN AR OCH EJ SAKERT FORSTAR MIG PA FAGLAR ALLSEJ LANGE NUMERA FRAN ALSKADE FADERNEJORDEN BLIR HAN BORTA OM OCK JERNFJETTRAR BETVINGADE HONOM TY MANGHITTIG AR HAN OCH TANKER VAL UT HUR HAN HEMFAR MEN DU VALAN MIG DETTA FORTALJ OCH NOGA BERATTA OM DU SA STOR EN KARL AR SON AF SJELFSTE ODYSSEUS TY DU AR MARKLIGEN LIK TILL DE VACKRA OGON OCH HUFVUT HONOM SAHAR MED HVARAN UMGINGOS VI MANGA GANGER FORRN TILL TROIA HAN SEGLADE BORT DIT AFVEN DE ANDRE YPPERSTE MAN FRAN ARGOS PA HALKADE SKEPPENA FORO SEN HAR ODYSSEUS ALDRIG JAG SETT OCH MIG HAN EJ HELLER HENNE TELEMACHOS NU DEN FORSTANDIGE SVARTE OCH SADE SANNERLIG FREMLING DIG HOGST NOGA JAG ARNAR BERATTA MOR MIN YRKAR VAL ATT JAG AR HANS MELLERTID JAG EJ SAKEN KANNER TY TROLIGEN INGEN ANNU SJELF VETAT SIN HARKOMST ATT JAG VORE LIKVAL EN SON TILL NAGON AF RIKA MANNER DEM ALDERDOMEN VID EGNA BESITTNINGAR TRAFFAT NU DEREMOT DEN SOM VARDT OSALLAST BLAND DODLIGA MENSKOR HONOM DE KALLA MIN FAR DET LANDER TILL SVAR PA DIN FRAGA HONOM TALTE DA TILL KLAROGDA GUDINNAN ATHENE VISST EJ GUDARNE HAFVA DIN SLAGT NAMNLOS EN FRAMTID GJORT TY SADAN EN MAN FRAMFODDE DIG PENELOPEIA MEN DU VALAN MIG DETTA FORTALJ OCH NOGA BERATTA HVAD GELAG HVAD HOP AR DETHAR HVAD NODGAR DIG HARTILL FESTMAL ELLER ETT BROLLOP FORTY DET AR VAL EJ BUNKLAG SA STORSTATLIGEN SYNAS DE MIG OCH UTOFVER HOFVAN GASTA HUSET EN MAN HELT VISST SLIKT SKULLE FORTRYTA SAGE HAN SKAMLOSHETEN OCH KLOKTANKT KOMME DEM OFVER HENNE TELEMACHOS NU DEN FORSTANDIGE SVARTE OCH SADE FREMLING EMEDAN OM DETTA DU MIG TILLSPORJER OCH FORSKAR TOR VAL FORDOM VART HUS OTADELIGT VARIT OCH AFVEN RIKT SALANGE ANNU HAR HEMMA DEN MANNEN FORDROJDE NU HELT ANNAT BESLOTS AF GUDAR SOM STAMPLA OSS OFARD HVILKA HA HONOM GJORT MER HANFORSVUNNEN ALLA MENSKOR TY VORE HAN DOD JAG SKULLE SA MYCKET EJ GRAMAS OM HAN TROERS LAND AFLIDIT BLAND VAPENKAMRATER ELLER VANNERNAS HANDER ENAR HAN KRIGET BESLUTIT SKULLE ATMINSTONE DA ACHAIERNE HONOM EN GRAFVARD GJORT OCH SIN SON STOR ARA KOMMANDE TIDER HAN VUNNIT NU PA ETT SNOPLIGT SATT HARPYIERNA ROFFADE HONOM OOMTALD HANSVUNNEN HAN DOG MEN SMARTOR OCH JEMMER LEMNADE MIG DOCK NU JAG EJ HONOM SUCKANDE SORJER ENDAST GUDARNE HAFVA MIG GJORT OCK ANDRA BEKYMMER TY DE ADLINGAR ALLA SOM EGA PA OARNA VALDE UPPA DULICHION SAMA OCH SKOGBEVEXTA ZAKYNTHOS AFVEN SAMTLIGE DE SOM PA KLIPPIGA ITHAKA HERRSKA DESSE MOR MIN FJESA OCH BRINGA OSS ALLA PA KNEKEN HON AFSAGER SIG EJ DET SKANDLIGA GIFTET OCH GITTER SLUT EJ GORA HARPA MELLERTID DE FROSSANDE SLOSA GODS MITT SNARLIGEN AFVEN MIG SJELF DE SKOLA FORODA HONOM TALADE TILL MISSTYCKANDE PALLAS ATHENE ACK VISST HADE DU MYCKET BEHOF AF ODYSSEUS DEN FJERRAN STADDE SOM HANDER LADE UPPA DE FRIARE FRACKA TY OM HAN HEMLAND NU FARSTUDORREN DERBORTA STODE FORSEDD MED HJELM OCH MED SKOLD SAMT LANSARNA TVENNE SADAN ANNU SOM JAG TILLFORENE SKADADE HONOM SIG FORNOJANDE HEMMA HOS OSS OCH TOMMANDE BAGARN NAR HAN FRAN ILOS MERMEROS SON FRAN EPHYRA LANDE TY JEMVAL DIT RESTE PA SNABBA GALEJAN ODYSSEUS DET MANDRAPANDE GIFT DER SOKANDE ATT HAN DET MATTE HA ATT KOPPARSPETSADE PILARNA SMORJA MEN HAN EJ GAF EMEDAN HAN VORDADE GRANNT STADS VARANDE GUDAR MEN DOCK FADER MIN GAF TY HAN HOGLIGEN ALSKADE HONOM SKULLE NU SLIK UPPTRADA BLAND FRIARESKARAN ODYSSEUS ALLE DE VISST SNARDODE OCH OLYCKSFRIARE VORE MEN SANNING JU DETTA BEROR AF GUDARNES ALLMAKT OM HEMKOMMEN IGEN HAN HAMNAS SKALL ELLER ICKE UTI DE EGNA SALAR OCH DIG JAG BJUDER BETANKA HURU DU UR SALEN SIN KOS DE FRIARE DRIFVA VILL DU MIG NU AHORA OCH AKT MIG GIFVA PA ORDEN SEDAN MORGON DU KALLAT ACHAISKA DROTTARNA SAMMAN ORDET FORKUNNA DEM ALLA OCH GUDARNA VARE DIG VITTNEN FRIARNE BJUD ATT SPRIDA SIG HAN HVAREN TILL SITT EGET MOR DIN BJUD FALL NU DESS HUG ILFANAS PA GIFTE ATT TILL FADRENS PALATS HON GANGE DEN MAKTIGES ATER DER DE BROLLOPET SEN TILLSTALLA OCH ORDNA EN HEMGIFT SARDELES RIK SOM DET HOFVES ATT FOLJA DEN ALSKADE DOTTREN MEN DIG SJELF JAG VILL GE ETT GRUNDELIGT RAD OM DU TAR DET RUSTA MED TJUGU RODDARE UT DEN BASTA GALEJA RES SA ATT EFTERSPORJA DIN FAR SOM LANGESEN BORTFOR OM BLAND DODLIGA NAGON BERATTAR DIG ELLER DU HORER SAGN FRAN ZEUS SOM MEST MENSKORNA TIDENDER BRINGAR FORST DA TILL PYLOS RES OCH DIG DER HOS NESTOR BEFRAGA TILL MENELAOS DAN BLONDLOCKIGA KONGEN SPARTA TY BLAND KOPPARKLADDA ACHAIERNA SEDNAST HAN HEMKOM SKULLE DU NU FORNIMMA DIN FADERS LIF OCH HANS HEMKOMST SANNERLIG FAST OCK QVALD DU ANNU ETT AR FORBIDA MEN OM HORA DU FAR ATT HAN DOTT OCH MERA EJ FINNES VANDANDE SEDAN IGEN TILL ALSKADE FADERNEJORDEN DU HONOM RESA EN VARD OCH BEGA HANS BEGRAFNING RIKLIGEN SASOM DET HOFS OCH DIN MOR BORTGE EN ANNAN MEN NAR DETTA DU NU FULLBORDAT HAFVER OCH VERKSTALLT SEDAN BOR DU BETANKA UTI DITT SINNE OCH HJERTA HURU EGET PALATS DU FRIARNA ANDTLIGEN MANDE DODA MED LIST ELLER OCK OFFENTLIGT DU ICKE BEHOFVER BARA DIG SOM ETT BARN TY DU AR EJ MER VID DE ELLER HORDE DU EJ HVAD PRIS VANN BALDE ORESTES INFOR MENNISKOR ALLA DA FADERMORDARN HAN DRAPIT DEN SVEKSINNTE AIGISTHOS SOM DRAPTE HANS RYKTBARA FADER ALSKADE DU OCKSA TY JAG SER DIG SA STOR OCH SA VACKER TAPPER VAR ATT HOS SEDNASTE SLAGT MAN GODT OM DIG SAGE MEN JAG REDAN BEGIFVER MIG NU TILL SNABBA GALEJAN OCH TILL DE MINA KANSKE VANTNINGEN HOGLIGEN LEDSNA SORJ DIG SJELF OCH NOGA BETANK DE ORDEN JAG TALAT HENNE TELEMACHOS NU DEN FORSTANDIGE SVARTE OCH SADE GASTVAN SANNERLIG DU VALMENANDE DETTA HAR TALAT LIKSOM EN FAR TILL SIN SON OCH ALDRIG JAG GLOMMER DE ORDEN MEN DROJ QVAR NU LIKVAL ANSKONT DU SA BRADSKAR MED RESAN ATT DU BADA DIG FORST SAMT SEN FORNOJANDE SINNET ATERGA MED EN SKANK TILL GALEJAN GLADLIG HJERTAT KOSTLIG OOH VACKER SKANK SOM STADS SKALL VARA DIG SKAPSKATT GIFVEN AF MIG SA PLAR GASTVANNEN GIFVA SIN GASTVAN HONOM SVARADE SEN KLAROGDA GUDINNAN ATHENE MIG EJ DU NUMER QVARHALLA SOM TRANGTAR ATT RESA MEN DEN SKANK DITT HJERTA BEFALLER DIG MIG FORARA DEN DU GE ATT JAG HEM FAR FORA DA ATER JAG KOMMER TAGANDE OCK EN SARDELES GRANN SOM FORTJENAR DIG MOTSKANK HON NAR DETTA HON TALT BORTGICK KLAROGDA ATHENE OCH SOM EN FAGEL HIMMELEN FLOG MEN HONOM HJERTAT LADE HON STYRKA OCH MOD PAMINNANDE HONOM OM FADREN MERA NANSIN FORUT HAN VARSNANDE DETTA MED TANKEN HAPNADE MYCKET FORTY HAN EN GUD DET ANADE VARA GENAST TILL FRIARNA NU SIG BEGAF GUDLIKNANDE MANNEN QVAD DESSA DA HOGROSTIGE SANGARN MED TYSTNAD SUTTO DE ALLE OCH HORDE HAN SJONG OM ACHAIERNAS BITTRA HEMFARD HVILKEN FRAN TROIA BEREDDE DEM PALLAS ATHENE MEN DER HOGAN LOFT AHORDE GUDOMLIGA SANGEN DROTTEN IKARIOS DOTTER FORSTANDIGA PENELOPEIA GICK SA UTFORE TRAPPAN DEN HOGA EGNA PALATSET ICKE ALLENA TILLIKA OCKSA TVA TARNOR NU FOLJDE NAR HON TILL FRIARNE SEN NEDSTIGIT DEN ADLA BLAND QVINNOR STOD HON INVID DORRPOSTEN UTAF VALBYGGDA PALATSET SANKANDE SITT ANLETE NED DEN GLANSANDE SLOJAN MEN VID HVARDERA SIDAN DER STOD EN BESKEDELIG TARNA GRATANDE SEDAN TALTE HON TILL DEN GUDOMLIGA SANGARN PHEMIOS VISST MANG ANDRA DE DODLIGES FROJDER DU KANNER GUDARS OCH MENNNISKORS VERK SOM SANGARNE HERRLIGEN QVADA NAGOT AF DESSA BESJUNG HAR SITTANDE MEN DE MED TYSTNAD VINET DRICKE DU UPPHORA MED DENNA SA SORGSNA SANGEN HVILKEN HOS MIG MITT HJERTA BROSTET BESTANDIGT QVALJER TY MIG MEST TRAFFAT DEN OFORGLOMLIGA SMARTAN SADANT HUFVUD JAG SAKNAR OCH ALLTID MINNS JAG MIN MAKE HONOM HVARS ARA SIG VIDA HELLAS SPRIDT OCH ARGOS HENNE TELEMACHOS NU DEN FORSTANDIGE SVARTE OCH SADE MODER MIN HVI MISSTYCKER DU DOCK ATT DEN ALSKLIGE SANGARN ROAR OSS EFTER HJERTATS BEHAG JU EJ SANGARNE ARO SAKER MEN ZEUS TORHANDA AR SAKER SOM SADANT FORUNNAR PAHITTIGA MAN SOM HONOM DET TACKES HVARJE DENNE FORTYCKE MAN EJ ATT HAN SJUNGER DE DANAERS OFARD TY DEN VISAN MENSKORNE MER ANDRA BEPRISA HVILKEN UTI AHORARNES KRETS AF ALLA AR NYAST DERFOR DITT HJERTA OCH SINNE OCKSA UTHARDE ATT HORA EJ AR ODYSSEUS DEN ENDE SOM HEMKOMSTDAGEN FORLORAT FINGO SIN BANE JU OCK MANG ANDRE MANNER VID TROIA UTAN GA TILL DITT RUM OCH SKOT DER ARENDER DINA VAFSTOLN AFVENSOM SLANDAN OCH TJENARINNORNA MANA ATT TILL ARBETE GA OM SAKEN MANNERNE VARDA SAMTLIGE MEST DOCK JAG TY MIN AR MAKTEN HUSET HON FORVANAD OCH STUM TILL KAMMAREN ATER BEGAF SIG TY SIN SONS FORSTANDIGA TAL HON LADE PA HJERTAT MEN NAR HOGAN LOFT HON HADE MED TARNORNA STIGIT SEDAN BEGRET HON ODYSSEUS DEN ALSKADE MAKEN TILLS LJUFLIG SOMN PA DESS OGONLOCK NEDSANDES AF PALLAS ATHENE FRIARNE STOJADE QVAR DE DUNKLANDE SALARNA HURTIGT ONSKANDE SAMTLIGE FA VID HENNE HVILA BADDEN MEN TELEMACHOS NU DEN FORSTANDIGE BORJADE ORDA FRIARE J TILL MIN MOR SOM EGEN EN TROTTSANDE FRACKHET LATOM OSS GASTANDE HAR FORLUSTA OSS UTAN ETT SADANT STOJ TY HERRLIGT JU AR DET MINSANN ATT HORA EN STATLIG SANGARE SOM HAN AR MED GUDARNE LIK TILL SIN STAMMA TIDIGT PA MORGONSTUNDEN VI MAGA OSS SAMLA TILL RADSLAG ALLE ATT JAG RENT UT FAR EDER MIN MENING FORKUNNA ATT UR SALARNA GA TILLSTALLEN ER ANDRA KALASER FRATANDE EGET GODS OMVEXLANDE EN MED DEN ANDRA OM ER DETTA LIKVAL MER ONSKELIGT SYNES OCH BATTRE VARA ATT UTAN STRAFF EN ENDES BESITTNING FORSTORA ODEN MEN JAG ANROPAR DE ALLTID VARANDE GUDAR OM ZEUS UNNAR EN GANG ATT LIKA GALDAS MED LIKA VISST OHAMNADE SKOLEN J DA PALATSET FORSTORAS TALADE SA OCH DE ALLE MED TANDREN LAPPARNA BETO OFVER TELEMACHOS UNDRANDE SIG ATT DRISTIGT HAN ORDAT HONOM TALTE DA TILL ANTINOOS SON AF EUPEITHES GUDARNE SJELFVE MINSANN DIG UNDERVISA ATT VARA SA STORORDIG MUN OCH PRATA SA SARDELES DRISTIGT MATTO DIG ALDRIG PA ITHAKAS TILL KONUNG KRONION GORA EHURU HON AR MED FODSLEN DITT FADERNERIKE HONOM TELEMACHOS NU DEN FORSTANDIGE SVARTE OCH SADE BLIR DU ANTINOOS OND KANHANDA DET JAG NU SAGER VISST JAG ITHAKA VILLE OM ZEUS DET UNNAR BESITTA ELLER MENAR DU DET BLAND MENNISKOR VARA ETT LAPPRI SANNERLIG AR DET EJ SLEMT ATT HERRSKA TY KONGARS PALATS STRAX BLIR FORMOGET DE SJELFVE OCKSA MER HEDRAS ANDRE MEN HAR FINNAS LIKVAL DE ACHAIERS KONGAR SANNING ANDRE MANGE PA ITHAKAS SA UNGE SOM GAMLE NAGON AF DEM DET HAFVE NAR BORTDOTT ADLE ODYSSEUS JAG LIKVAL VART HUS SKALL HERRE VARA OCH HERRE OFVER DE SLAFVAR SOM FANGAT MIG DEN ADLE ODYSSEUS HONOM POLYBOS SON EURYMACHOS SVARTE OCH SADE DETTA TELEMACHOS LIGGER HELT VISST GUDARNES HANDER HO SOM PA ITHAKAS SKALL VARA ACHAIERNES KONUNG SJELF LIKVAL DU BESITTA DITT GODS OCH BEHERRSKA DITT HUSFOLK EJ TOR KOMMA EN MAN SOM EMOT DIN VILJA MED VALDSMAKT GODSET RYCKER DIG FRAN SA LANGE VAR AR BEFOLKAD MEN KARALSKLIGE DIG JAG VILL TILLSPORJA OM GASTEN HVADAN DEN MANNEN KOM OCH IFRAN HVAD LAND HAN SIG SKRYTER VARA OCH HVAR HANS FADERNEJORD HANS STAMMA BEFINNES BRAGTE HAN TIDENDER MED OM DIN HEM ANLANDANDE FADER ELLER KOM HAN VAL HIT ATT EGNA ARENDER SKOTA HURU HAN HASTIGT ILADE BORT OCH EJ VETA HVEM HAN VAR FINGO VI DOCK HAN EJ VAR TILL ANLETET LIK MED EN USLING HONOM TELEMACHOS NU DEN FORSTANDIGE SVARTE OCH SADE SANNERLIG EURYMACHOS AR FORLORAD MIN FADERS IGENKOMST DERFOR JAG LITAR EJ MERA PA TIDENDER HVADAN DE KOMME ICKE JAG AKTAR HELLER DE GUDABESLUT SOM MIN MODER KALLANDE SIAREN HIT VAR SAL UTFORSKAR AF HONOM DENNE MIG FRAN TAPHOS AR LAND EN FADERNE GASTVAN MENTES DEN INSIGTSFULLE ANCHIALOS SON HAN SIG SKRYTER VARA OCH KONUNG HAN AR DE TAPHISKA RODDAREBUSSAR SA NU TELEMACHOS DOCK SIN SJAL HAN KANDE GUDINNAN MEN DE SOM VANDT SITT SINNE TILL DANSEN OCH TJUSANDE SANGEN FORLUSTADE SIG AF BIDANDE AFTONENS PAKOMST DE FORLUSTADE SIG DA DEN MORKA AFTONEN PAKOM SEN ATT SOFVA EN HVAR SIG ANDTLIGEN MAKADE HEMAT OCH TELEMACHOS DIT DER PA PRYDLIGA GARDEN HANS SOFRUM HOGT VAR BYGGDT PA ETT VALKRINGSKADELIGT STALLE BEGAF SIG SJELF TILL HVILA OCKSA OMVALFVANDE MYCKET SINNET BAR SA HONOM BRINNANDE BLOSS DEN AKTSAMA TARNAN EURYKLEIA EN DOTTER TILL OPS SJELF SON TILL PEISENOR HENNE MED EGNA MEDEL SIG KOPT TILLFORNE LAERTES TJUGU OXAR HAN GAF OCH HON VAR DA BLOMSTRANDE FLICKA LIKT MED SIN VARDA GEMAL PALATSET HAN AKTADE HENNE DELANDE ALDRIG DESS BADD OCH SIN MAKAS VREDE SA UNDVEK HON MEDFORDE DE BRINNANDE BLOSS HON ALSKADE HONOM OCK BLAND TARNORNA MEST OCH FOSTRAT HONOM SOM LITEN NU HAN OPPNADE DORRN TILL DET VALINRATTADE SOFRUM SATTE PA SANGEN SIG SEN AFKLADANDE TROJAN DEN FINA HVILKEN HAN LADE HANDREN UTAF KLOKRADIGA GUMMAN MEN DA HON TROJAN IHOP VAL VECKLAT OCH PUTSAT BEHORIGT HANGDE HON HENNE PA KNAGGEN BREDVID DEN PYNTADE SANGEN GICK SA UTUR SOFRUMMET OCH DROG TILL DORREN MED SILFVER RINGEN OCH SEN MED DESS REM FRAMSKOT HON RIGELN DERJEMTE DER HELNATTLIGT HAN NU OMTACKT MED DE FINASTE FARSKINN VALFDE DEN FARD SITT SINNE SOM HONOM ATHENE BEBADATANDRA SANGEN NAR SIG NU VISTE DEN TIDIGA ROSENFINGRADE EOS HASTADE UPP FRAN SIN BADD DEN ALSKADE SON AF ODYSSEUS SEDAN HAN KLADT SIG OCH HANGDE DET EGGIGA SVARDET PA AXELN BANDT OCK SKONA SANDALER INUNDER DE FYLLIGA FOTTREN OCH UR SITT SOFRUM GICK JEMLIK MED EN GUD TILL ATT PASE OCH SA BEFALLTE HAN SEN HOGLJUDDA HEROLDERNA GENAST KALLA TILL SAMMANKOMST HARFAGRA ACHAIERNA ALLA DESSE KALLADE ALLA SOM OCK FORSAMLADES SKYNDSAMT MEN DA DE SAMLATS REDAN OCH HOPFORSAMLADE VORO SJELF HAN TILL SAMLINGEN GICK MED KOPPARLANSEN HANDEN ICKE ALLENA TY TVA SNABBFOTADE STOFVARE FOLJDE OCH ETT GUDOMLIGT BEHAG UTGOT NU PA HONOM ATHENE HAPNANDE SAG DET SAMTLIGE FOLK TILL DEN KOMMANDES MOTE SATTE SIG NED PA SIN FADERS STOL OCH GERONTERNE VEKO DA BEGYNTE NU FORST FRIBORNE AIGYPTIOS ORDA HAN SOM AF ALDERDOMEN VAR KROKT OCH VISSTE SA MYCKET OCK HANS ALSKADE SON ATFOLJT GUDMAKEN ODYSSEUS TILL SKONFALIGA ILION HAN PA DE HALDADE SKEPPEN ANTIPHOS KAMPEN MEN HONOM IHJELSLOG VILDE KYKLOPEN UTI DEN HALIGA GROTTAN OCH REDDE SIN YTTERSTA QVALLSVARD OCK TRE ANDRA HAN HADE BLAND FRIARNE EN AF DEN DVALDES EURYNOMOS MEN TVA STADS BLEFVO VID FADERNEGODSET DOCK HAN SORGSEN OCH KLAGANDE EJ SIN ANTIPHOS GLOMDE MEN TARGJUTANDE NU TOG ORDET OCH BORJADE TALA HOREN MIG NU ITHAKESIER OCK HVAD JAG AMNAR ER SAGA ALDRIG SKEDDE HOS OSS RADSAMLING ANNU ELLER MOTE ALLTSEN DEN ADLE ODYSSEUS PA HALKADE SKEPPENA BORTFOR HO HAR OSS NU FORSAMLAT OCH HVEM PAKOM SA BEHOFVET HVEM BLAND DE YNGRE MAN ELLER DEM SOM GAMLARE ARO MONNE HAN TIDENDER HORT OM EN HIT ANTAGANDE KRIGSHAR DEM HAN OSS SADE BESTAMDT DA HAN FORR DEM SKULLE FORNUMMIT ELLER MONNE HAN ANNAN EN FOLKSAK NAMNER OCH KUNGOR REDLIG SYNES HAN MIG ALLT GODT HAN NJUTE HONOM ZEUS FULLBORDE TILL LYCKELIGT SLUT HVAD HAN VALFVER SINNET SADE ODYSSEUS ALSKADE SON JARTECKNET FORNOJDE OCH HAN EJ MERA LANGE DER SATT MEN LANGTADE TALA STEG SA SAMLINGENS MIDT OCH SPIRAN HANDEN EMOTTOG AF PEISENOR HEROLDEN SOM VISSTE DE KLOKASTE TANKAR FORST DEREFTER HAN VANDE SITT TAL TILL DEN GAMLE OCH SADE GAMLE DEN MAN AR EJ FJERRAN DU SJELF DET GENAST FORNIMMER JAG FOLKET FORSAMLAT OCH MEST PAKOMMER MIG ANGSLAN JAG EJ TIDENDER HORT OM EN HIT ANTAGANDE KRIGSHAR DEM JAG ER SADE BESTAMDT DA JAG FORR DEM SKULLE FORNUMMIT ICKE HELLER JAG ANNAN EN FOLKSAK NAMNER OOH KUNGOR UTAN MIN EGEN SAK SOM MIG OFARD STORTAT HUSET TVEFALDT DELS HAR JAG MIST DEN ADLASTE FAR SOM BLAND EDER SAMTLIGA FORR VAR KONG OCH LIKT EN FADER SA GODSINNT NU EN VIDA STORRE OCKSA SOM SNARLIGT ALLDELES HELA MITT HUS FORSTOR OCH GRUND FORODER MIN LIFSKOST PA MIN MOR SOM EJ VILL EN SKARA AF FRIARE TRANGER SONER TILL SADANE MAN SOM HARSTADS ARO DE HOGSTE DESSE RADAS ATT GA TILL IKARIOS HUS SOM AR HENNES FADER ATT SJELF SIN DOTTER HAN UTSTYRA MED BRUDSKANK GIFVA HVEM HAN VILL SOM VAL TACKNAMELIG KOMMER MEN NU VART HUS STADS QVARDROJANDE DAGAR PA DAGAR SLAKTANDE SIG OXAR OOH FAR OCH GETTERNA FETA HALLA DE FRISKA KALAS OCH DRICKA DET GLODANDE VINET SKAMLOST MYCKET FORODS MELLERTID TY EJ FINNES EN SADAN MAN SOM ODYSSEUS VAR OFARDEN ATT VARJA FRAN HUSET VI EJ ARO STAND ATT VARJA OCH AFVEN HAREFTER RADDNINGSLOSE VI BLI OCH EJ ALLS FORSTA OSS PA NODVARN SANNERLIG SLIKT AFVARJDE JAG VISST OM JAG EGDE FORMAGA OUTHARDLIGA ARO DE SAKER SOM HANDA OCH NESLIGT HELA MITT HUS FORSTORTS OCK BORDE NI SJELFVE FORARGAS BORDE BLYGAS OCKSA DE HAR KRINGBOENDE MENSKOR HVILKA BO HAROMKRING OCH FRUKTEN GUDARNES VREDE KANSKE FORGRYMMADE DE NAPSA SA SKAMLIGA DATER BADE JAG ZEUS ANROPAR OLYMPIERN AFVENSOM THEMIS HVILKEN MANNERNES RAD UPPLOSER OCH BRINGAR ATT SITTA HEJDEN ER VANNER OCH LATEN AF HARDA BEKYMRET MIG ENSAM TARAS SAFRAMT EJ NANSIN MIN FAR DEN ADLE ODYSSEUS HAR FIENDTELIG GJORT FOTBRYNJTA ACHAIERNA ILLA OCH J GALDANDE DET FIENDTLIGE ILLA MIG GOREN EGGANDE DESSA MIG LANGT BATTRE DET VORE SANNING ATT J SKULLEN FORTARA BAD BOSKAPSHJORDAR OCH SKAPSKATT JA OM J ALLT UPPATEN KANSKE SNART FOLJDE BETALNING TY VI SKULLE STADEN MED ORD OMBEDJA SA LANGE ATERFORDRANDE VART TILLS ALLT OSS GIFVITS TILLBAKA NU OBOTLIGA SMARTOR J MIG INKASTEN SJALEN SA HAN TALADE VRED OCH TILL MARKEN SLANGDE SIN SPIRA GJUTANDE TARAR DET SAMTLIGA FOLK BETOGS DA AF MISKUND TEGO SA ALLE DE ANDRE DERVID EJ VAGADE NAGON ENDASTE GIFVA TELEMACHOS SVAR KRANKANDE ORDALAG MEN ANTINOOS HONOM ALLEN TILLTALTE OCH SVARTE HVAD HAR DU SAGT HOGPRATIG TELEMACHOS DRISTIG STORMOD SKYMFANDE OSS DU VILLE VAL NOG PASTANKA OSS SKAMFLACK SAKER ARO DIG DOCK DE ACHAIISKE FRIARE ICKE UTAN DIN MOR SOM MER EN ANN FORSTAR SIG PA RANKER TY NU REDAN HA TRE AR GATT SNART VANDRAR DET FJERDE SEN DEN TID ACHAIERNAS BROST HON HJERTAT BEDARAR HOPP HON HVAR MAN SKANKER OCH SIG UTLOFVAR ALLA SANDANDE TIDENDER DOCK HELT ANNAT DESS SINNE BEGRUNDAR SA BLAND OFRIGA SVEK HON FEJANDE STAMPLADE AFVEN SATTANDE UPP STOR VAF HON KAMMAREN BORJADE VAFVA FIN OANDELIGT LANG OCH TILL OSS HON TALTE OCH SADE SVENNER SOM FRIEN TILL MIG DA DEN ADLE ODYSSEUS NU HANGATT BIDEN PA BROLLOPET OCH BRADSKEN EJ TILLS JAG EN LIKSKRUD FARDIG ARBETAT ATT ICKE MITT GARN ODAS FORGAFVES FRIBORNE LAERTES TILLDESS ATT HONOM OMSIDER TAGER DEN LANGUTSTRACKANDE DODS FORDERFLIGA ODE ATT EJ LANDET PA MIG ACHAIINNORNA MAGA FORARGAS OM HAN FORUTAN TACKELSE LAGE SOM EGDE SA MYCKET SA HON TALTE HOS OSS MANHAFTIGE HJERTAT BEVEKTES VISSERLIG VAFDE HON NU OM DAGEN PA VAFVEN DEN STORA MEN OM NATTREN DEN RISPADE OPP DA HON FACKLORNA FRAMSATT SA HON TRE AR SVEK OSS MED LIST OCH BEDROG DE ACHAIER MEN NAR FJERDE ARET NU KOM OCH TIDERNA KOMMIT SADE OSS DA BLAND TARNORNA EN SOM GRANNLIGEN VISSTE OCH VI TRAFFADE HENNE SOM RISPADE HERRLIGA VAFVEN SA HON SLUTADE DEN FAST ALLS EJ VILLIG AF NODTVANG DIG GE FRIARNE DETTA TILL SVAR ATT VAL DU VETA SJELF DIN EGEN SJAL OCH ACHAIERNE ALLE VETA SKICKA DIN MODER HAN OCH BEFALL ATT TILL MAKE HON TAGER HONOM SOM FADREN BEFALLER OCH SOM OCK HENNE BEHAGAR MEN OM HON LANG TID UTLEDSNAR ACHAIERNAS SONER VALFVANDE SADANT SINNET SOM RIKLIGT FORLANAT ATHENE FYNDIGT VETT OCH DERHOS FORTRAFFLIGA SLOJDERNAS INSIGT SVEK DERJEMTE SOM ALDRIG VI HORT OM EN BLAND DE FORDNA SOM SKONFLATIGA HAR TILLFORENE BOTT ACHAIA TYRO OCH ALKMENE ELLER OCK SKONFLATIG MYKENE INGEN ENDA AF DEM DE FINTER SOM PENELOPEIA VISSTE MEN DENNA LIKVAL SIG EJ TILL FROMMA HON UTTANKT TY DE SKOLA DIN KOST OCH DITT GODS SA LANGE FORTARA SOM HON BLIFVER VID DETTA BESLUT DET SAKERT EN GUD HAR HENNE SINNET LAGGT SIG SJELF STOR ARA MAHANDA GOR HON MEN DIG HELT SAKERT FORLUST AF MANGEN BESITTNING VI EJ HEM OSS BEGIFVA OCH ANNORSTADES EJ HELLER INNAN HON GIFT SIG MED DEN AF ACHAIERNA HVILKEN HON TYCKER HONOM TELEMACHOS NU DEN FORSTANDIGE SVARTE OCH SADE EJ ANTINOOS HOFVES MED VALD UTJAGA UR HUSET HENNE SOM FODT MIG OCH FOSTRAT FAR MIN FREMMANDE LANDER DOTT ELLER LEFVA MIG BLEFVE DET SVART ATT IKARIOS GALDA DRYGT OM SJELF JAG MIN MOR MED BERADT MOD JAGADE HADAN TY AF DESS FADER JAG ONDT FAR LIDA OCH ANNAT EN GUDOM SANDER ENAR MIN MOR DE BISTRA ERINNYER BEDER GAENDE BORT UR HUSET OCH HAMD FRAN MENNISKOR SKALL MIG DRABBA OCH DERFORE JAG EJ NANSIN DET ORDET BEBADAR MEN OM SJALEN HOS EDER BESITTER DEN MINSTA FORSYNTHET GAN MIG UR SALARNA HAN TILLSTALLEN ER ANDRA KALASER FRATANDE EGET GODS OMVEXLANDE EN MED DEN ANDRA SKULLE ET DETTA LIKVAL MER ONSKELIGT SYNAS OCH BATTRE VARA ATT UTAN STRAFF EN ENDES BESITTNING FORSTORA ODEN MEN JAG ANROPAR DE ALLTID VARANDE GUDAR OM ZEUS UNNAR EN GANG ATT LIKA GALDAS MED LIKA VISST OHAMNADE SKOLEN J DA PALATSET FORSTORAS SA TELEMACHOS ORNAR ETT PAR DEN DUNDRANDE GUD ZEUS HONOM SANDE ATT FLYGA FRAN HOGSTA TOPPEN AF BERGET DESSE FLOGO NU BADA EN STUND SA SNABBA SOM VINDEN SPANNANDE VINGARNA UT HELT NARA DEN ENE DEN ANDRA MEN DA DE KOMMIT TILL MIDTEN UTAF MANGPRATIGA RADET SVANGDE DE SIG OMKRING OCH SLOGO MED VALDIGA VINGAR SAGO PA ALLAS HUFVUDEN NED OCH FORKUNNADE OFARD OCH DA MED KLORNA DE KINDERNA SLITIT OCH HALSARNA SONDER SKYNDADE BADA HOGER IGENOM HUSEN OCH STADEN OFVER FAGLARNA HAPNADE ALLA SASNART DE DEM VARSNAT SAMT SIN SJAL OMVALFDE HVAD NU VAL KOMME ATT HANDA MEN DA TALTE BLAND DEM HALITHERSES DEN ALDRIGE ADLING MASTORS SON TY ALLEN SAMTIDIGA MENSKOR HAN VIDA VANN BAD ATT FAGLAR KANNA OCH GUDAORAKEL FORTALJA HAN VALMENANDE ORDADE DA BLAND DESSA OCH SADE HOREN MIG NU ITHAKESIER OCK HVAD JAG ARNAR ER SAGA MEN FRIARNE MEST JAG DETTA FORKUNNAR OCH TALAR TY DEM VALFVES EN STOR OLYCKA TY ICKE ODYSSEUS LANGE NUMER FRAN VANNERNA AR MEN VISTAS HELT NARA NAGONSTADES OCH REDER DEMHAR FORDERFVET OCH DODEN SAMTLIGEN MEN MANG ANDRA OCKSA OLYCKA SKALL DRABBA OSS SOM PA ITHAKA BO DET VALKRINGSKADLIGA DERFOR GRANNT PATANKEN HUR VI DEM HEJDE SIG SJELFVE DE AFVEN HEJDA MAGA TY DET VAL BLIFVER DEM SNARLIGT DET BASTA TY EJ SKALL JAG ER SPA OKUNNIG MEN VAL ERFAREN TY JAG MENAR ATT ALLT FULLBORDATS AFVEN HONOM SASOM JAG ORDADE DA NAR ARGEIERNE HADAN TILL TROIA SAMTLIGE FORO ASTAD OCH MED DEM MANGRADE ODYSSEUS SADE ATT SEN MANG QVAL HAN LIDIT OCH ALLA KAMRATER MISTAT SKULL PA DET TJUGUNDE AR HAN AF INGEN IGENKAND KOMMA TILL HEMMET IGEN DET ALLT FULLBORDADT NU VARDER HONOM POLYBOS SON EURYMACHOS SVARTE OCH SADE GUBBE VALAN DU KAN PROPHETERA PILTARNA DINA VANDRANDE HEM ATT EJ DEM OLYCKA FRAMDELES DRABBA VIDA BATTRE DU SPAR JAG HVAD DETTA BETRAFFAR FAGLAR MANGA TILL TAL VISST SOLENS STRALAR INUNDER VANKA EJ ALLA LIKVAL BETYDELSEFULLA ODYSSEUS DOG LANGT BORTA ATT DU OCKSA DIN BANE MED HONOM UNDFATT ICKE DU SKULLE DA SARDELES PRATA ORAKEL OCH EJ EGGA TELEMACHOS NOG DESSUTOM FORTRETAD BIDANDE NAGON SKANK DITT HUS FALL HAN DEN GAFVE MEN JAG SAGER DIG RENT OCK SKALL FULLBORDADT DET VARDA OM DU DEN YNGRE MAN DU SOM VET BAD GAMMALT OCH MYCKET OFVERTALAR MED LISTIGA ORD OCH RETAR TILL VREDE HONOM SJELF TILL EN BORJAN DET BLIFVER GANSKA FORDERFLIGT DOCK HAN DESSES SKULL EJ GITTER DET RINGASTE GORA MEN DIG GUBBE VI PLIKT PALAGGE OCH DEN SKALL DU GALDA HARMSEN SJALEN MINSANN OCH TUNG DIG VARDER FORTRETEN INFOR ALLA JAG VILL TELEMACHOS GIFVA DET RADET BJUDE HAN MOR SIN VANDA IGEN TILL FADERNEHUSET DER DE BROLLOPET SEN TILLSTALLA OCH ORDNA EN HEMGIFT RIKELIGT STOR SOM HOFS MEDFOLJA DEN ALSKADE DOTTREN TY JAG MENAR ATT FORR ACHAIERNES SONER EJ AFSTA FRAN NOG LEDT FRIERI VI RADAS ALLSICKE NAGON EJ TELEMACHOS FASTAN HAN AR STORPRATIG KANTANKA EJ OM ORAKLET VI HELLER OSS BRY DET DU OSS GUBBE SLADDRAR VADRET OCH MERA ANNU ASAMKAR DIG HATSKHET GODSET SNOPLIGEN SKALL TARAS OCH NANSIN EJ UNDFAS VEDERGALLNING SA LANGE SOM HON ACHAIERNA SKJUTER BROLLOPET UPP MEN VI AFBIDANDE DAGAR PA DAGAR HAR HENNES BEHAGS SKULL TAFLE OCH ICKE TILL ANDRA GA VI HVILKA DET VORE EN HVAR TILLSTANDIGT ATT AKTA HONOM TELEMACHOS NU DEN FORSTANDIGE SVARTE OCH SADE DU EURYMACHOS OCH J TROTTSIGE FRIARE ALLE DETTA EJ MER JAG BEDER ER OM EJ HELLER FORMALER TY REN GUDARNE VETA DERAF OCH ALLE ACHAIER MEN MIG GIFVEN EN HURTIG GALEJA OCH TJUGU KAMRATER HVILKA RESAN MED MIG HITAT FULLBORDA OCH DITAT TY TILL SPARTA JAG NU VILL FARA OCH SANDIGA PYLOS DER ATT EFTERSPORJA MIN FAR SOM LANGESEN BORTFOR OM BLAND DODLIGA NAGON BERATTAR MIG ELLER JAG HORER SAGN FRAN ZEUS SOM MEST MENSKORNA TIDENDER BRINGAR SKULLE JAG NU FORNIMMA MIN FADERS LIF OCH HANS HEMKOMST SANNERLIG FAST OCK QVALD JAG ANNU ETT AR VILL FORBIDA MEN OM HORA JAG FAR ATT HAN DOTT OCH MERA EJ FINNES VANDANDE SEDAN HEM TILL DEN ALSKADE FADERNEJORDEN SKALL JAG HONOM RESA EN VARD OCH BEGA HANS BEGRAFNING RIKLIGEN SASOM DET HOFS OCH MIN MOR BORTGE EN ANNAN NAR NU DETTA HAN TALT HAN SATTE SIG NED OCH DA UPPSTEG MENTOR EN VAPENBROR TILL DEN TADELFRIE ODYSSEUS HVILKEN HAN UPPDROG HELA SITT HUS DA HAN RESTE PA SKEPPEN ATT HORSAMMA DEN GAMLA OCH ALLT ORUBBADT BEVARA HAN VALMENANDE TALADE DA BLAND DESSA OCH SADE HOREN MIG NU ITHAKESIER OCK HVAD JAG ARNAR ER SAGA HULD VALSINNAD OCH VANLIG NUMER EJ VARE EN ENDE SKEPTERBARANDE KONG SIN SJAL HAN EJ VETE HVAD RATT AR MEN STADS VARE HAN HARD OCH ORATTRADIGHET OFVE TY EJ MINNES JU NAGON NUMERA DEN ADLE ODYSSEUS BLAND DET FOLK SOM HAN STYRDE OCH VAR SA HULD SOM EN FADER MEN JAG DE TROTTSIGE FRIARNE EJ MISSUNNAR DET MINSTA ATT DE FOROFVA VALDSAMA VERK AF IDELIG VANART TY DE SATTA SITT HUFVUD PA SPEL OCH VALDSAMT FORTARA DROTTEN ODYSSEUS HUS OCH DE TRO EJ ATT NANSIN HAN KOMMER NU JAG AR VRED PA DET OFRIGA FOLK HURLEDES J ALLE SITTEN SA STUME OCH ICKE MED ORD ENS AGANDE HEJDEN FRIARNE FA TILL TAL MOT ER SOM SA MANGA HONOM EUENORS SON LEIOKRITOS SVARTE OCH SADE MENTOR DU OLYCKSBRINGANDE TOK HVAD HAR DU VAL ORDAT EGGANDE DESSA ATT OSS AFSPISA DET SANNERLIG SVART BLIR ATT VID ETT GASTBUD STRIDA EMOT FLERTALIGA MANNER TY OM ODYSSEUS SJELF ITHAKESIERN AFVEN IGENLAND TROTTSIGA FRIARNE HAR SITT HUS KALASANDE FUNNE OCH SITT SINNE BESLOTE ATT DEM UR SALEN FORJAGA SANNERLIG GLADDE SIG EJ HANS MAKA FAST MYCKET HON TRANAR DEN KOMMA MEN HAR FINGE HAN SNOPELIG ANDA OM MED FLERA HAN STRIDDE DU EJ SAKENLIGT HAR ORDAT MEN NU VALAN KRINGSPRIDEN ER FOLK EN HVAR TILL SITT EGET HONOM NOG HALITHERSES TILL RESAN SKYNDAR OCH MENTOR VAPENBRODER JU ARO DE TU SEN GAMMALT FADREN DOCK JAG MENAR ATT HAN QVARSITTANDE TIDENDER LANGE BIDAR PA ITHAKA EJ FULLBORDAR HAN NANSIN DEN RESAN SA HAN TALTE OCH STRAX FOLKSAMLINGEN LOSTE DERJEMTE OCH DE TILL EGNA BONINGAR NU KRINGSPRIDDE SIG ALLE MEN TILL ODYSSEUS HUS SIG FRIARNE ATER BEGAFVO GICK SA TELEMACHOS DAN AFSIDES TILL STRANDEN AF HAFVET TVATTADE HANDREN UTI GRA BOLJAN OCH BAD TILL ATHENE HOR MIG GUDINNA DU SOM GAR PAHELSADE VART HUS OCH SOM MIG BJOD MED GALEJAN UPPA DET RUSKIGA HAFVET RESA ATT FRAGA MIG FORE OM LANGE DROJANDE FADRENS HEMKOMST DETTA NU ALLT ACHAIERNE SOKA FORHALA MEN DOCK FRIARNE MEST HOGMODIGE UTOFVER HOFVAN SA HAN BEDJANDE TALTE ATHENE NALKADES HONOM LIKNANDE MENTOR SAVAL TILL GESTALT SOM AFVEN TILL STAMMA OCH HON HOJDE SIN ROST OCH SADE BEVINGADE ORDEN EJ EN FRAMTID BLIR DU TELEMACHOS FEG ELLER OVIS JA OM DIG AR GJUTET DIN FADERS MODIGA SINNE AR DU SADAN HAN VAR ATT ORD FULLBORDA OCH HANDLING DA BLIR SANNERLIG ICKE DIN FARD OLYKTAD OCH FRUKTLOS MEN OM DU EJ TILL HONOM AR SON OCH PENELOPEIA DA JAG EJ TROR ATT DU SKALL FULLBORDA DET SOM DU AMNAR TY FA SONER MINSANN SIN FADER LIKA BEFINNAS SAMRE DE FLESTE ARO OCH FA VISST BATTRE FADREN MEN DA DU FRAMDELES EJ SKALL FEGSINNT VARA OCH OKLOK OCH DIG EJ HELLER ODYSSEUS FORSTAND SA ALLDELES LEMNAT EGER DU HOPP ATT EN GANG FULLBORDA DESSA BEDRIFTER DERFORE LEMNA DERHAN NU FRIARNES TANKE OCH RADSLAG DARARNES TY RATTRADIGE EJ EJ KLOKE DE ARO ICKE VETA DE ALLS AF DEN SVARTA KEREU OCH DODEN SOM DEM REDAN AR NARA ATT ALLE PA DAGEN FORODAS DIG EJ LANGE SKALL DROJA NUMER DEN FARD SOM DU AMNAR TY SLIK AR JAG SANNING DIG EN FADERNE GASTVAN SOM NOG SNABBA GALEJAN SKALL RUSTA OCH SJELF MED DIG FOLJA MEN DU TILL HEMMET GA OCH DER BLAND FRIARNA VISTAS RUSTA DIG VAGKOST SEDAN OCH ALLT LAGG VARLIGT KARLEN VINET HANDTAGSKRUKOR OCH KORNGRYN MARGEN HOS MANNER TATTSLUTANDE SKINN MEN JAG BLAND FOLKET KAMRATER SKALL VALVILLIGA DIG HOPSAMLA GALEJOR VAL FINNAS MANGE PA KRINGSKOLJD ITHAKAS BAD NYA OCH GAMLA HENNE SOM STATLIGAST AR JAG SJELF BLAND DESSA DIG UTSER RUSTADE SKYNDSAMT LAGGE VI UT PA DET VILLANDE HAFVET SA NU ATHENAIE ZEUS DOTTER OCH LANGE EJ MERA DROJDE TELEMACHOS QVAR DA GUDINNANS STAMMA HAN AHORT UTAN HAN GICK ATT FORFOGA SIG HEM HJERTAT BEDROFVAD FANN SA DE TROTTSIGE FRIARNES HOP SALARNA ATER FLAENDE GETTER OCH SKALLANDE SVIN DERJEMTE PA GARDEN ANTINOOS GICK LEENDE RAKT TILL TELEMACHOS MOTE HANGDE SIG FAST VID HANS HAND OCH TALADE ORDEN OCH SADE TELEMACHOS HOGPRATIG TILL MOD OKUFLIG ETT ANNAT ONDT DU EJ ANSTAMPLA SINNET MED ORD ELLER GERNING UTAN DU BARA OCH DRICK SOM AFVEN TILLFORNE DETTA DIG ALLT HELT VISST DE ACHAIER SKOLA FORSKAFFA BADE GALEJA OCH ONSKLIGA MAN ATT SNARLIGT DU KOMMER TILL GUDSKYDDADE PYLOS PA SAGN OM HERRLIGA FADREN HONOM TELEMACHOS NU DEN FORSTANDIGE SVARTE OCH SADE ANTINOOS ICKE MIG HOFS ATT EDER SA BALA GE OVILLIG KALAS OCH MAKLIGHET HALLA MIG MUNTER AR DET EJ NOG ATT TILLFORNE J ODDEN SA MANGA AF MINA HERRLIGA GODS DA ANNU JAG VAR BARN J GILJANDE MANNER NU DA JAG REDAN AR STOR OCH HORANDE TALET AF ANDRA DET UPPFATTAR OCH MIG REN VEXER MODET BARMEN FRESTA JAG SKALL ATT SANDA PA ER OLYCKLIGA KERER OM JAG TILL PYLOS FAR ELLER OCK BLIR HEMMA LANDET JA JAG RES OCH DEN FARD BLIR FRUKTLOS EJ SOM JAG OMNAMNT RES PA BETING TY GALEJA EJ JAG EJ RODDARE EGER SJELF SA EDER SANNING DET SYNTS MER BATANDE VARA SADE OCH DROG SIN HAND UR ANTINOOS HAND DETSAMMA LATT OCH HUSET DE GILJANDE MAN BESTYRDE OM MALTID DESSE BEGABBADE HONOM OCH YTTRADE SKYMFLIGA ORDEN SA NU MANGEN IBLAND STORTROTTSIGA SVENNERNA SADE SANNERLIG OFVERTANKER OSS DOD TELEMACHOS IFRIGT ANTINGEN BRINGAR HAN HJELPARE HIT FRAN SANDIGA PYLOS ELLER FRAN SPARTA KANSKE TY NU HAN AFLAS FORSKRACLIGT ELLER TILL EPHYRA OCK HAN ARNAR DET BORDIGA LANDET RESA MENING ATT DAN LIFODANDE GIFT MED SIG HAMTA KASTA BLANDNINGSSKALEN OCH GA FORGORA OSS ALLA ANNAN ATER IBLAND STORTROTTSIGA FRIARNE SADE HO KAN VETA OM ICKE HAN SJELF PA DET HALKADE SKEPPET LANGT FRAN VANNERNA DOR KRINGVANKANDE LIKSOM ODYSSEUS SA MER DERJEMTE OSS HAN OKTE BESVARET TY FORST DELTE VI JU HANS SAMTLIGA SKATTER OCH SEDAN GAFVE MOR HANS HUSET OCH DEN SOM HENNE VILL AKTA TALTE OCH HAN STEG NED SIN FARS HOGTAKIGA VIDA SOFRUM DER BAD KOPPAR OCH GULD FORVARADES HOGTALS KLADER KISTORNA MED OCH MANGD VALLUKTANDE OLJA KARL MED GAMMALT VIN VALSMAKELIGT AFVEN DERINNE STODO EN OMANGD GUDARNES DRYCK FORBORGANDE INOM STALLDE RAD MOT VAGGEN HANDELSE DROTTEN ODYSSEUS HEM ANLANDE EN GANG SEN MANGA STRAPASER HAN UTSTATT RIGLADE DORRAR OCH TATT ANPASSADE FUNNOS DER AFVEN DUBBLA OCH HUSHALSQVINNAN DERINNE BAD NATTER OCH DAGAR DVALDES SOM HOGST OMHUGSAMT PA ALLT TOG GRANNLIGEN VARA EURYKLEIA EN DOTTER TILL OPS SJELF SON TILL PEISENOR HENNE TELEMACHOS DA TILLTALADE KALLAD KAMMARN MOR MIN VALAN MIG VIN HANDTAGSKRUKORNA PAFYLL LJUFLIGT SOM AR NAST DET VALSMAKLIGAST HVILKET DU GOMMER VANTANDE VAR OLYCKLIGE DROTT OM NANSIN HAN KOMMER ADLE ODYSSEUS HEM UNDSLUPPEN KERER OCH DODEN TOLF DU FYLLA OCH SAMTLIGA VAL TILLTAPPA MED LOCKEN HALL SEN UTI VALSOMMADE SKINN DERJEMTE MIG KORNGRYN TJUGU MATT DU TAGA UTAF QVARNMALADE GODSET SJELF DU DET ENSAM VETE OCH ALLT STORSTATLIGT BESTYRES TY JAG AFTON ANNU DET SKALL AFHAMTA SASNART SOM MODREN STIGIT DITUPP SITT LOFT OCK TANKER PA HVILA TY JAG TILL SPARTA BEGIFVER MIG HAN OCH TILL SANDIGA PYLOS FRAGANDE OM MIN FARS HEMRESA DEREST JAG FORNIMMER SADE OCH EURYKLEIA DEN ALSKADE FOSTRERSKAN STORGRET OCH SIG JEMRANDE TALADE HON BEVINGADE ORDEN HVI HAR ALSKADE BARN DIG SADAN TANKE SINNET KOMMIT OCH HVART VILL DU RESA DITUT KRING VIDASTE VERLDEN DU KARALSKLIGE ENDE TY LANGT FRAN FADERNELANDET ADLE ODYSSEUS ANDAT SITT LIF BLAND FREMMANDE MENSKOR DESSE SA SNART SOM DU RES UPPTANKA DIG SEDAN DIN OFARD ATT DU MED LIST DODAS OCH SEN ALLT DETTA DE DELA STANNA DU QVAR OCH SITT VID DITT GODS DIG ICKE DET ANSTAR ATT PA DEN ODSLIGA SJON ONDT LIDA OCH IRRA OMKRING DER HENNE TELEMACHOS NU DEN FORSTANDIGE SVARTE OCH SADE TROSTA DIG MOR EJ UTAN EN GUD AR DETTA BESLUTET MEN MIG SVAR ATT EJ ORDA HAROM EGEN MIN MODER FORRN DA DEN ELFTE DAG ELLER TOLFTE REDAN AR KOMMEN ELLER HON SJELF MIG LANGTAR ATT SE OCH HORT ATT JAG BORTREST ATT HON EJ GRATANDE FORDERFVA SITT ANLET DET FAGRA TALTE OCH GUDARNES VIGTIGA ED DEN GAMLE NU AFGAF MEN SASNART SOM HON SVURIT OCH EDEN LYKTAT BEHORIGT FYLLDE HON STRAX DERUPPA HANDTAGSKRUKORNA VINET HALLDE HONOM UTI VALSOMMADE SKINNEN OCK KORNGRYN RUMMEN TELEMACHOS GICK OCH MED FRIARNE DVALDES ANNAT BEGRUNDADE DA KLAROGDA GUDINNAN ATHENE HON TELEMACHOS LIK OFVERALLT STADEN OMKRINGGICK OCH VID HVARENDASTE MAN QVARSTANNANDE TALADE ORDET BJOD DEM OM AFTONEN SIG FORSAMLA PA SNABBA GALEJAN NU HON AF PHRONIOS HERRLIGA SON NOEMON BEGARTE SNABBA GALEJAN MEN HAN OCK VILLIG DETTA SIG PATOG NED GICK SOLEN OCH STIGARNE REN FORSKUGGADES ALLA OCH DA DROG HON SJON DEN SNABBA GALEJAN OCH ALLSKONS REDSKAP LADE DERI SOM TOFTADE SKEPP MED SIG FORA BRAGTE SA YTTERST HAMNEN OMKRING DE HURTIGE BUSSAR MANGRANNT SAMLADE SIG OCH EN HVAR UPPMANTE GUDINNAN ANNAT BEGRUNDADE DA KLAROGDA GUDINNAN ATHENE OCH TILL ODYSSEUS HUS DEN HERRLIGES STALLDE HON KOSAN DERSTADS GJOT HON EN LJUFVELIG SOMN PA GILJARESKARAN DREF DEM RUSIGA KRING OCH BAGRARNA STOTTE UR HANDREN DESSE STAN HIT OCH DIT ATT SOFVA SIG SKYNDADE LANGE MER DE EJ DROJDE PA OGONENS LOCK NEDFOLL DEM JU SOMNEN MEN TILL TELEMACHOS TALADE NU KLAROGDA ATHENE KALLANDE HONOM UT UR DE BONINGSBEQVAMLIGA SALAR MENTOR LIK EJ BLOTT TILL GESTALT MEN AFVEN TILL STAMMA TELEMACHOS REDAN DIG FOTBRYNJTE KAMRATER SITTA VID ARORNA BIDANDE AF DIN SNARLIGA ANKOMST LATOM OSS DERFORE GA OCH EJ MER UPPSKJUTA VAR RESA TALADE SA OCH FORUT NU VANDRADE PALLAS ATHENE SKYNDSAMT SEN HAN FOLJDE OCKSA GUDINNAN SPAREN MEN SASNART NU DESSE TILL SJON ANLANDT OCH GALEJAN FUNNO PA STRANDEN DE REN SKONLOCKIGA RESEKAMRATER DEM TELEMACHOS HELIGA KRAFT TILLTALADE AFVEN KOMMEN VANNER OCH HIT VAGKOSTEN LATOM OSS BRINGA ALLT AR SALEN TILLREDS MEN MOR MIN VET EJ DET MINSTA EJ TJENARINNORNAS HOP BLOTT EN OM SAKEN HAR KUNSKAP TALADE SA OCH FORDE DEM DE FOLJDE TILLIKA DE NEDBURO DA ALLT OCH UTI VALTOFTIG GALEJA LADE PA SADANT SATT SOM ODYSSEUS SON DEM BEFALLTE STEG NU TELEMACHOS SEDAN OMBORD OCH ATHENE FORUTGICK SATTE SKEPPETS AKTER SIG NED OCH NARA TILL HENNE SIG TELEMACHOS SATTE OCH BAKSTAMSTAGEN DE LOSTE STIGANDE AFVEN OM BORD OCH TOGO PA TOFTERNA PLATSER SANDE SA DEM EN GYNNANDE FLAGT KLAROGDA ATHENE FRISKASTE ZEPHYROSVIND SOM HVINTE PA HAFVET DET DUNKLA TELEMACHOS FOLJSMANNERNA SEN ANMANTE ATT HURTIGT FATTA TAGEN TAG ANMANINGEN AFVEN DE LYDDE MASTEN AF FURU UTI DEN HALKADE MELLANTOFTEN RESTE DE UPP ATT STA OCH BUNDO MED LINORNA HONOM SPANNANDE HVITA SEGLEN MED VALHOPFLATADE REMMAR BLASTE NU MIDT SEGLET EN KULTJE OCH VAGORNA KRINGOM KOLEN DE DUNKLA DANADE HOGT OCH GALEJAN HON FRAMGICK DER HON EMELLAN BOLJORNA LOPP FULLBORDANDE FARDEN SEDAN DE TAGEN SURRAT PA ILANDE SVARTA GALEJAN STALLDE DE BLANDNINGSSKALARNA FRAM VINFYLLDA TILL BRADDEN OFFER GJOTO DERAF ODODLIGA GUDAR TILL ARA OCH BLAND ALLA FORNAMST ZEUS KLAROGADE DOTTER HON ALLNATTLIGT SIN VAG OCH MORGONEN LADE TILL RYGGATREDJE SANGEN HELIOS SKYNDADE NU SEN HAN LEMNAT DET TJUSANDE HAFVET TILL MANGKOPPARNE HIMMELEN UPP ATT GUDARNA SKINA OCH DE DODLIGA MENSKOR UPPA FRUKTGIFVANDE JORDEN DESSE TILL NELEUS STAD DET BONINGBEQVAMLIGA PYLOS KOMMO OCH DER PA STRANDEN AF SJON TILLREDDE MAN OFFER TJURAR ALLDELES SVARTA JORDOMSKAKAREN MORKHAR NIO VAR BANKARNES TAL FEMHUNDRADE MAN PA HVARENDA SUTTO OCH NIO TJURAR IFRAN HVARENDA MAN TILLSKJOT DER INELFVORNA ATOS OCH LAREN FORBRANDES GUDEN MEN DE STYRDE GERAD OCH SEGLEN PA JEMNA GALEJAN HISSANDE REFVADE HOP LANDSATTER OCH GINGO DERUR SEN GICK SA TELEMACHOS NU UR GALEJAN ATHENE FORUTGICK ORDA BEGYNTE DA FORST KLAROGDA GUDINNAN ATHENE ICKE TELEMACHOS GORS DIG BEHOF AF BLYGSEL DET MINSTA TY FORDENSKULL PA SJON DU SEGLADE ATT OM FADREN HORA EHVAR HAN GOMMES JORD HVAD ODE HAN FUNNIT MEN NU VALAN GA RAKT HASTTUKTAREN NESTOR TILL MOTE SKOLE VAL SA FORNIMMA HVAD RAD HAN GOMMER BROSTET HONOM BOR DU OCKSA OMBEDJA ATT SANNINGEN SAGA DOCK HAN EJ LOGN SKALL TALA HAN AR ALLO FORSTANDIG HENNE TELEMACHOS NU DEN FORSTANDIGE SVARTE OCH SADE MENTOR HUR KAN JAG VAL GA HUR SKICKLIGEN HELSA PA HONOM ICKE AR JAG ERFAREN UTI DE DUGLIGA ORDLAG BLYGS DERJEMTE ATT UNG UTFRAGA DEN ALDRIGE MANNEN HONOM TALTE DA TILL KLAROGDA GUDINNAN ATHENE ANNAT TELEMACHOS SJELF UTTANKA DU SKALL DITT SINNE ANNAT EN GUDOM GIFVER DIG FORTY JAG EJ MENAR ATT DU MOT GUDARNES VILJA AR HVARKEN FODD ELLER FOSTRAD TALADE SA OCH FORUT NU VANDRADE PALLAS ATHENE SKYNDSAMT MEN HAN GUDINNAN DERPA LATT FOLJDE SPAREN DESSE TILL PYLISKE MANNERNES KRETS ANKOMMO OCH BANKAR DERSTADS NESTOR MED SONERNA SATT OCH KAMRATERNA RUNDTKRING REDANDE MALTID STEKTE SIG KOTT OCH SPETTADE ANNAT NAR DE NU FREMMANDE SAGO SA KOMMO DE SAMTLIGEN ALLE OCH VALKOMNADE DEM MED HANDREN OCH BJODO ATT SITTA NESTORIDEN PEISISTRATOS FORST STEG NARMARE TILL DEM FATTADE BADA VID HAND OCH DEM NODGADE SITTA TILL MALTIDS INVID HAFVETS SANDIGA KUST PA MJUKASTE FARSKINN NARA TILL BRODREN SIN THRASYMEDES OCH NARA TILL FADREN GAF DEM UTAF INELFVORNA STYCKEN OCH HALLDE SA VINET EN GYLLNE POKAL TILLTALTE OCH HELSADE SEDAN PALLAS ATHENAIE ZEUS AIGISBARARENS DOTTER BED NU FREMMANDE GAST TILL HAFVETS DROTT POSEIDAON TY NI TILL HANS OFFERGELAG HIT RAKADE KOMMA MEN DA DU GJUTIT AF VINET OCH BEDT SOM OFLIGT OCH RATT AR GIF HONOM BAGAREN OCK ATT GJUTA DET LJUFVA VIN FORTY JAG MENAR ATT HAN ODODLIGA AFVEN TILLBER GUDARNES HJELP JU SAMTLIGE MENSKOR BEHOFVA MEN HAN AR YNGRE MED MIG JEMNARIGHET VISST HAN BESITTER DERFORE VILL JAG OCKSA FORST GE DIG GYLLENE BAGARN SADE OCH LADE HANDREN POKALN MED LJUFLIGA VINET GLADDES ATHENAIE FORSTANDIGE MANNEN OCH KLOKE DERFOR ATT HAN HENNE FORUT GAF GYLLENE BAGARN STRAX ENTRAGET HON BAD TILL HAFVETS DROTT POSEIDAON HOR POSEIDAON JORDFAMNE OCH VARDES EJ NEKA ATT FULLBORDA OSS DE SAKER OM HVILKA VI BEDJE NESTOR OCH NESTORS SONER NU FORST BESKARE DU ARA SEDAN OCKSA TACKNAMMELIG LON OFRIGA ALLA STORSTATELIG FESTHEKATOMB DE PYLIER UNNE LAT SA TELEMACHOS AFVEN OCH MIG HEMLANDA MED UTFORDT VARF HVILKET VI KOMMIT PA SNABBA GALEJAN DEN SVARTA SA HON HOJDE SIN BON OCH DERHOS VILLFARADE BONEN GAF TELEMACHOS OCK DEN STATLIGA DUBBELPOKALEN SAMMALUNDA NU BAD DEN ALSKADE SON AF ODYSSEUS SEDAN DE STEKT DET FETASTE KOTT OCH DRAGIT FRAN SPETTEN SKURO DE HVAR SIG STYCKEN OCH HOLLO ETT GLANSANDE FESTMAL MEN TILL DRYCK OCH TILL MAT NAR DE SAMTLIGEN MATTAT SIN LYSTNAD STRAX BEGYNTE ATT ORDA GERENISKE RIDDAREN NESTOR NU TILLSTANDIGT DET AR ATT ALLT UTFORSKA OCH FRAGA GASTERNA HVILKA DE ARO ENAR SIG MATTA DE ATIT GASTER HVILKA ALLTSA HVARIFRAN PA DE VATTNIGA VAGAR SEGLEN J MONNE VARF ELLER OCK KRINGIRREN J LATTSINNT LIKASOM ROFVARE HAFVET OMKRING SOM PLAGA ATT VANKA SATTANDE LIFVET PA SPEL OCH BRINGANDE SKADA ANDRA HONOM TELEMACHOS NU DEN FORSTANDIGE SVARTE OCH SADE DRISTIG VORDEN TY MOD HANS BROST SJELF HADE ATHENE LAGGT ATT SPORJA HAN MATTE DEN GAMLE OM FADREN SOM BORTREST OCH ATT ETT UTMARKT NAMN BLAND MENSKORNA FOLLE PA HONOM NESTOR NELEIADES DU ACHAIERNES ARA HVADAN VI DU SPORJER OCH JAG SKALL SAGA DIG AFVEN FRAN HYPONEISKA ITHAKA HIT ANKOMNE VI ARO VARFVET AR EGET OCH EJ ALLMANNELIGT SOM JAG DIG NAMNER EFTER MIN FARS VIDTFREJDADE NAMN JAG KOMMER ATT HORA DEN TALMODIGE ADLE ODYSSEUS HVILKEN MAN SAGER KAMPANDE FORDOM MED DIG HA TROERNES FASTE FORGRUSAT TY OM ALLA DE ANDRA SOM FORDE MOT TROERNA HARNAD VETE VI JU HVAR EN HVAR FORGICKS BEDROFVELIG OFARD MEN KRONION OM HONOM FORDOLT OCK SJELFVA HANS OFARD TY HVAR HAN DOG FORVISSO EJ KAN MIG NAGON BERATTA OM HAN UTAF FIENDTLIGA MAN VARDT MORDAD PA LANDET OM HAN PA SJON KANHANDA UTI HAFSDROTTNINGENS VAGOR DERFORE NU DIG KNANA JAG NALKAS OM NANSIN DU VILLE ANTEN MED EGNA OGON DU SETT HANS BEDROFLIGA OFARD SAGA MIG ELLER OM DU DEROM FORSPORT AF EN ANNAN VANKANDE TY SA BEKLAGELIG SON FRAMFODDE HANS MODER HVARKEN AF AKTNING MIG DU MILDRA DITT ORD ELLER OMKAN UTAN BERATTA MIG ALLT PA HVAD SATT DET MOTTE DIN ASYN GOR DET JAG BER OM NANSIN MIN FAR DEN KACKE ODYSSEUS ANTINGEN ORD ELLER VERK FULLBORDADE HVILKET HAN LOFTE UTI DE TROERS LAND DER J SKADOR LEDEN ACHAIER MIG NU DETTA FORTALJ OCH SAG MIG IDELIG SANNING HONOM SVARADE SEN DEN GERENISKE RIDDAREN NESTOR ALSKADE EFTER DU MIG PAMINNT OM DEN JEMMER DETTA LAND VI HARDADE UT MODSTORE ACHAIERNES SONER DELS ALLT DET MED GALEJORNA PA DIMMDUNKLIGA HAFVET VANKANDE EFTER ETT ROF EHVART OSS FORDE ACHILLEUS DELS ALLT DET VI OMKRING KONG PRIAMOS FASTE DET STORA KAMPADE DER OCK SEN DE TAPPRASTE STUPADE ALLE AIAS LIGGER DEN KRIGISKE DER DER AFVEN ACHILLEUS DER PATROKLOS OCKSA UPPVAGANDE GUDAR VISHET DER MIN ALSKADE SON PA ENGANG BAD KRAFTIG OCH VANKFRI ANTILOCHOS LOPANDE SNABB MER ANDRA OCH STRIDSGOD UTOM DETTA VI OCK MANGT ANNAT LEDO OCH HVILKEN BLAND DE DODLIGA MENNISKOR ALLT VAL KUNDE BERATTA ICKE ENS DA OM DU FEM ELLER SEX AR DROJANDE HARSTADS SPORDE HVAD ALLT QVAL DER LEDO DE ADLE ACHAIER FORR TILL DIN FADERNEJORD UTLEDSEN DU VANDE TILLBAKA NIO VI REDDE DEM ONDT OMRINGANDE STADEN MED MOJELIG LIST KNAPPT LYKTADE DETTA KRONION DERSTADS INGEN RAD LIKSTALLA SIG NANSIN MED HONOM VILLE TY VIDA SEGRADE STADS DEN ADLE ODYSSEUS MED MOJELIG LIST FAR DIN OM DU SANNING ATTLING AF HONOM AR MIG SKADANDE FANGSLAR BEUNDRAN TY VISST SKICKELIGT FALLER DITT TAL EJ SKULLE MAN MENA ATT EN MAN SOM AR UNG SA SKICKELIGT ORDA FORMADDE DER NU HELA DEN TIDEN EJ JAG OCH DEN ADLE ODYSSEUS TVESKILJS TALTE UTI FOLKSAMLINGEN ELLER RADET UTAN STADS EN SJAL MED VETT OCH FORSTANDIGA RADSLAG TANKTE VI HUR ARGEIERNA ALLT AFLUPE FORTRAFFLIGT MEN DA GRUND VI FORODT DEN HOGA PRIAMOSSTADEN STIGIT PA SKEPPEN OM BORD OCH EN GUD DE ACHAIER FORSKINGRAT DA JEMVAL UTTANKTE SJALN ZEUS SORGELIG HEMFARD DE ARGEIER FORTY RATTRADIGE EJ ELLER KLOKE SAMTLIGE VORO DERFOR FICK MANGEN EN SNOPELIG ANDA GENOM FORDERFLIG HARM HOS PALLAS DEN VALDIGES DOTTER SOM UPPVACKTE EN TVIST DE BADA ATREIDER EMELLAN SEDAN DESSE TILL SAMLING ACHAIERNA SAMTLIGA KALLAT DARLIGT MEN EJ SOM SKICKELIGT VAR MOT SJUNKANDE SOLEN OCH NU KOMMO BETYNGDE AF VIN ACHAIERNES SONER ORDET ORDADE DE HVARFOR KRIGSFOLKET DE SAMLAT VISSERLIG DA MENELAOS BEFALLTE ACHAIERNA ALLA MINNAS SIN ATERFARD PA HAFVETS YTA DEN VIDA DET MELLERTID EJ BEHAGADE ALLS AGAMEMNON SOM VILLE QVAR KRIGSFOLKET BEHALLA OCH HELIGA OFFER FORRATTA ATT FORSONA ATHENAIES FORSKRACKLIGA VREDE DARE SOM EJ FORSTOD ATT ICKE HON SKULLE BEVEKAS TY EJ ANDRAR SIG STRAX STADS VARANDE GUDARNES VREDE SA MED FIENDTLIGA ORD OMVEXLANDE DESSE NU BADE STODO OCH UPP SIG RESTE HAST FOTBRYNJTE ACHAIER MED FORSKRACKELIGT SORL OCH DE TVESKILJS GILLADE RADET NATTEN LAGO VI TANKANDE UT OLYCKOR SJALEN MOT HVARANDRA TY ZEUS TILLSTALLDE OSS HARDA FORDERFVET MEN VID MORGONENS STUND VI SJON GALEJORNA DROGO FORDE VART GODS OM BORD OCH DE SKONOMGORDLADE QVINNOR HALFTEN UTAF KRIGSFOLKET LIKVAL QVARSTANNANDE DROJDE DER HOS ATREUS SON AGAMEMNON HERDEN FOLKET HALFTEN VI STEGO OM BORD OCH RESTE GALEJORNA SKYNDSAMT SEGLADE LUGNAT HADE EN GUD OMATLIGA HAFVET TILL TENEDOS KOMNE VI REDDE GUDARNA OFFER HASTANDE HEM MEN ANNU ZEUS ICKE BESLUTIT VAR HEMKOMST HARD HAN VACKTA NU ATERIGEN DEN SKADLIGA TVISTEN SOMLIGE VANDANDE OM TVERODDA GALEJORNA RESTE ALLE ODYSSEUS MAN DEN VISE OCH FYNDIGE DROTTENS ATER ATT STALLA SIG HOS ATREUS SON AGAMEMNON JAG DEREMOT MED SAMTLIGA SKEPP SOM HADE MIG ATFOLJT FLYDDE TY NOG JAG VISSTE ATT ONDT TILLSTALLDE OSS GUDEN FLYDDE SA TYDEUS KRIGISKE SON OCH KAMRATERNA PADREF KOM OCK EFTER OSS SENT BLONDLOCKIG DROTT MENELAOS HVILKEN PA LESBOS OSS HANN PATANKANDE LANGA SEGLATSEN ANTINGEN OFVANOM CHIOS DET KLIPPIGA RESA VI BORDE RAKT PA PSYRIAS BEHALLANDE HENNE TILL VENSTER ELLER NEDANOM CHIOS FORBI DET BLASIGA MIMAS BADO SA GUDEN LATA OSS SE JARTECKEN HAN AFVEN VISTE OCH BJOD OSS MIDTOFVER SJON GERAD PA EUBOIA SEGLA PA DET VI SNARLIGAST SA UNDGINGE FORDERFVET BLASTE NU UPP EN SUSANDE VIND OCH GALEJORNA SKYNDSAMT LUPO PA FISKIGA VAGARNA FRAM OCH SEN VID GERAISTOS TOGO DE HAMN OM NATTEN OCH VI DER BRAGTE POSEIDON OFFER AF TJURARS LAR DA VI MATT DET VILLANDE HAFVET FJERDE DAGEN DET VAR DA ARGOS DE JEMNA GALEJOR TYDEUS SONS HASTTUKTARENS MAN DIOMEDES HAMNEN BRAGTE MEN JAG HOLL KOSAN PA PYLOS OCH ALDRIG OSS MEDVIND STANNADE AF SASNART SOM EN GANG GUD SANDT DEN ATT BLASA SA OKUNNIG MITT ALSKADE BARN JAG KOM OCH EJ KANNER HVILKA IBLAND DE ACHAIER FORGATTS OCH HVILKA SOM RADDATS MEN ALLT DET JAG SITTANDE HAR SALARNA VARA HORT OCH SOM BILLIGT AR SKALL DU VETA DIG DOLJER JAG INTET VAL MYRMIDONERNE SAGS DET DE SPJUTINOFVADE KOMMO FORDE UTAF STORSINNTE ACHILLEUS LYSANDE ATTLAGG VAL PHILOKTETES OCKSA DEN HERRLIGE SONEN TILL POIAS FORDE SA IDOMENEUS KAMRATERNA ALLA TILL KRETA HVILKA UR KRIGET SLUPPIT OCH SJON BORTROFVADE INGEN SJELFVE FJERRAN LAND J HAFVEN VAL HORT OM ATREIDES HUR HAN KOM HUR AIGISTHOS BEREDDE BEDROFVELIG OFARD MEN HAN SANNERLIG OCK FORSKRACKLIGEN DETTA HAR UMGALLT HUR VAL ATT EN SON DEN MORDADE MANNEN SIG EFTER LEMNAR TY HAN JEMVAL SIN FADERS MORDARE NAPSTE DEN FALSKSINNTE AIGISTHOS SOM DRAP NAMNKUNNIGA FADREN ALSKADE DU OCKSA TY JAG SER DIG SA STOR OCH SA VACKER TAPPER VAR ATT HOS SEDNASTE SLAGT MAN GODT OM DIG SAGE HONOM TELEMACHOS NU DEN FORSTANDIGE SVARTE OCH SADE NESTOR NELEIADES DU ACHAIERNES ARA VISST HAN HAMNADES SKARPT OCH ACHAIERNE SKOLA HONOM BARA ETT VIDSTRACKT LAF EN SANG KOMMANDE SLAGTEN MATTE EN LIKDAN KRAFT MIG GUDARNE HAFVA FORLANAT ATT JAG DE GILJARE NAPSTE JAMMERFULLA FORFANGET HVILKA AF OFVERMOD ANSTAMPLA MIG SKANDLIGA SAKER MEN MIG GUDARNE EJ EN SADAN LYCKA BESLUTIT HVARKEN MIG ELLER FAR MIN OCH NU ALLT MASTE MAN TALA HONOM SVARADE SEN DEN GERENISKE RIDDAREN NESTOR ALSKADE EFTER DU MIG PAMINNT OM DETTA OCH ORDAT FOLKET PRATAR ATT GILJARE MANGE TILL TAL DIN MODERS SKULL ANSTAMPLA SALARNA ONDT SOM DIG EJ BEHAGAR SAG MIG KUFVAS DU NU FRIVILLIG ELLER DIG FOLKEN HATA LANDET SA HORSAMMANDE GUDENS ORAKEL HO KAN VETA OM DEM VALDSVERKET HAN KOMMANDE HAMNAS ANTEN ALLENA HAN AR ELLER OCK SAMFALTE ACHAIER TY OM HON VILLE ALSKA DIG SA KLAROGDA ATHENE SASOM HON VARDADE SIG OM DEN ARERIKA ODYSSEUS UTI DE TROERS LAND DER VI SMARTOR LEDO ACHAIER TY EJ NANSIN JAG SETT SA KLARLIGEN GUDARNE ALSKA SASOM KLARLIGEN HONOM BESKARMADE PALLAS ATHENE OM HON VILLE NU ALSKA DIG SA OCH VARDA AF HJERTAT SANNERLIG AFVEN MANGEN AF DEM BORT BROLLOPET GLOMDE HONOM TELEMACHOS NU DEN FORSTANDIGE SVARTE OCH SADE GAMLE MAN JAG TROR ATT DITT TAL FULLBORDAS EJ NANSIN TY MYCKET DU SAGT MIG HAPNAD BETAGER OCH ICKE DENNA FORHOPPNING MIG FYLLS ANSKONT SA GUDARNE VILLE HONOM TALTE DA TILL KLAROGDA GUDINNAN ATHENE HVAD ORD DIG TELEMACHOS FLOG UR TANDERNAS STANGSEL LATT EN GUD OM HAN VILL FRAN FJERRAN EN DODELIG RADDAR VILLE JAG VISST MINSANN FAST EFTER MANGA STRAPASER LANDA TILL EGET HUS OCH HEMKOMSTDAGEN BESKADA HELLRE VID MIN HARD PA SATT SOM NU AGAMEMNON GENOM AIGISTHOS LIST AR MORDAD OCH GENOM SIN MAKAS MEN EJ GUDARNE SJELFVE ENGANG DEN GEMENSAMA DODEN ENS FRAN ALSKAD MAN FORMA AFVARJA ENAR DEN LANGUTSTRACKADE DODS FORDERFLIGA ODE EN FATTAR HENNE TELEMACHOS NU DEN FORSTANDIGE SVARTE OCH SADE MENTOR TALOM EJ MER OM DETHAR FAST SORGSNE VI TY EJ MERA HONOM AR SANN HEMKOMSTEN MEN REDAN DE ODODLIGE DOD ANSTIFTAT OCH LOTTEN DEN SVARTA NU OM EN ANNAN SAK JAG VILL UTFORSKA OCH FRAGA NESTOR TY MERA ANDRA HAN LAGAR KANNER OCH KLOKSKAP TY TRE GANGER HAN SAGS HA MANNERNES SLAGTEN BEHERRSKAT DERFORE OCK ODODELIG HAN MIG SYNES ATT PASE NESTOR NELEIADES DU SAGE MIG SANNING HUR DOG ATREUS SON VIDTHERRSKANDE KONG AGAMEMNON HVAR VAR DA MENELAOS OCH HUR ANSTAMPLADE OFARD NU SVEKRADE AIGISTHOS SOM DRAP LANGT TAPPRARE MANNEN VAR ACHAISKA ARGOS HAN EJ MEN KANSKE HOS ANDRA MENNISKOR IRRADE KRING OCH DENNE DJERFDES ATT MORDA HONOM SVARADE SEN DEN GERENISKE RIDDAREN NESTOR NOG SKALL JAG DETTA MIN SON SANNFARDLIGEN ALLT DIG FORTALJA VISSERLIG SJELF OCK GISSAR DU LATT HUR SAKEN SIG TILLDROG OM HAN AIGISTHOS VID LIF HADE SALARNA TRAFFAT ATREUS SON DA FRAN TROIA HAN KOM BLONDLOCK MENELAOS SKULLE MAN EJ PA DEN DODADES STOFT UPPKASTAT EN GRAFHOG UTAN HUNDARNE HONOM FORTART OCH KORPARNE SAKERT LIGGANDE LANGT FRAN ARGOS PA FALTET OCH HONOM EJ NAGON AF ACHAINNORNA GRATIT SA STOR ILLGERNING HAN UTTANKT TY DERBORTA JU VI UTFORANDE MANGA BEDRIFTER DVALDES OCH LUGN EN VRA UTAF HASTNARANDE ARGOS HAN AGAMEMNONS GEMAL ENTRAGET SMEKTE MED ORDEN LANGE BORJAN LIKVAL AFSLOG HON DEN SKAMLIGA GERNING ADLA KLYTAIMNESTRA HON EGDE ETT REDELIGT HJERTLAG VAR HOS HENNE EN SANGARE OCK SOM HOGLIGEN OMBAD ATREUS SON DA TILL TROIA HAN ATT BEVAKA GEMALEN MEN NAR GUDARS BESLUT NU INSNARJT HENNE ATT KUFVAS SE DA FORDE HAN SANGAREN BORT TILL ODSLIG EN HOLME LEMNANDE DER ATT VARDA ETT ROF OCH BYTE KORPAR HENNE DEN VILJANDE VILJANDE SEN HEM TILL SIG HAN FORDE MANGA LAR HAN BRANNDE PA GUDARNES HELIGA ALTAR MANGA SMYCKEN AF GULL FORARADE AFVENSOM VAFVAR SEN STORVERKET HAN LYKTAT SOM ALDRIG SJALEN HAN HOPPATS SA VI RESTE FRAN TROIA OCH SEGLADE BADA TILLSAMMAN SONEN AF ATREUS OCH JAG VALSINNADE MOT HVARANDRA MEN DA VI HELIGA SUNION NATT ATHENARNES UDDE PHOIBOS APOLLON DER STYRMANNEN MENELAOS MED DE LINDRIGA PILARNAS SKOTT PAKOMMANDE DRAPTE MEDAN RODRET HANDREN HAN HOLL SNABBA GALEJAN PHRONTIS ONETORS SON MER SKICKLIG MENNISKORS SLAGTEN VAL ATT STYRA GALEJAN ENAR SOM STORMARNE TRANGDE SA QVARHOLLS HAN NU DER ANSKONT PASKYNDANDE RESAN ATT JORDA SIN VAN OCH DERHOS BEGA HANS BEGRAFNING MEN NAR DENNE OCKSA PAFARANDE HAFVET DET DUNKLA UPPA DE HALKADE SKEPP KLIPPUDDEN VID BRANTA MALEIAI ILANDE NATT FORSKRACKLIG DESS FARD VIDTDUNDRAREN ZEUS DA STAMPLADE OCH DEN HVINANDE VINDS STORMANDE HAN NEDGJOT SAMT OFANTLIGA GRASLIGA SVALL SA HOGA SOM BERGEN DER ATSKILJANDE SKEPPEN TILL KRETA HAN JAGADE NAGRA DER DE KYDONER BODDE OMKRING IARDANOS FLODEN FINNS SA EN VISS GLATT KLIPPA OCH BRANT SOM SKJUTER SALTSJON YTTERST VID GORTYNS FASTE UTI DIMMDUNSTIGA HAFVET SUNNAN DER STORTVAGEN MOT VESTLIGA UDDEN TILL PHAISTOS JAGAR OCH LITEN EN HALL AFVARJER DEN VALDIGA VAGEN NAGRE DE KOMMO NU DIT OCH KNAPT UNDGINGO FORDERFVET MANNERNE MEN MOT KLIPPORNA SLOGOS AF BOLJORNA SKEPPEN SONDER MEN FEM LIKVAL AF SVARTFRAMSTAMIGA SKEPPEN VINDEN OCH VAGEN FORANDE BORT HANDREF TILL AIGYPTOS SA NU HAN 
[...]
 OCH UPPTVATTAT GLANS JEMFORLIG MED SOL ELLER MANE SE DA BRAGTE EN SKADELIG GUD FRAN FJERRAN ODYSSEUS TILL UTJORDEN DER OCK SVINHERDEN SIN KOJA BEBODDE DER INTRAFFADE SONEN OCKSA AF ADLE ODYSSEUS LAND FRAN SANDIGA PYLOS TILLBAKA MED SVARTA GALEJAN DESSE FRIARNE SKANDELIG DOD ANSTEMPLANDE BEGGE KOMMO TILL HOGBEROMLIGA STADEN MEN LIKVAL ODYSSEUS SEDNARE TELEMACHOS REN HADE FORUT SIG BEGIFVIT MEN EUMAIOS FORDE SIN DROTT MED TRASOR PA KROPPEN EN GAMMAL MANS EN JEMMERLIG TIGGARES SKEPNAD LUTAD EMOT SIN KAPP OCH MED OMKLIGA KLADER PA KROPPEN SADAN HAN VAR EJ NAGON AF OSS ALLS GITTADE KANNA HONOM PLOTSLIGEN SEDD JA ICKE DE GAMLARE HELLER UTAN MED KAST OCH SKYMFLIGA ORD ANSATTE VI HONOM MEN HAN EN STUND UTHARDADE DER SALARNA EGNA BADE AF KAST ANFAKTAD OCH ORD MED TALSAMA SINNET MEN DA NAR HONOM BJOD ZEUS AIGISBARARENS VILJA MED TELEMACHOS TOG HAN OCH BORTBAR PRUNKIGA VAPNEN TILL SOFKAMMAREN LADE DEM DER OCH RIGLARNA LASTE AF ILLPARIGHET SEDAN HAN GAF SIN MAKA BEFALLNING ATT FRIARNE LEMNA SIN BAGE OCH JERNET DET GRAA OLYCKSALIGA OSS TILL ETT PRIS OCH EN BORJAN AF BLODBAD DOCK EJ NAGON AF OSS FORMADDE DEN VALDIGE BAGENS STRANG UPPSPANNA TY MYCKET DERTILL KLENA VI VORO MEN DA DEN STORE BAGEN NU KOM ODYSSEUS HANDREN DA MED HOTANDE ORD VI SAMTLIGE GENAST FORBJODO ATT EJ BAGEN GIFVA SKONT HUR MYCKET HAN TALTE ENSAM TELEMACHOS UPPMANANDE BJOD ATT DEN GIFVA NU DEN HANDEN HAN TOG MANGPROFVADE ADLE ODYSSEUS SPANDE SIN BAGE SA LATT SAMT SKJOT JERNYXARNA GENOM TRADDE PA TROSKLEN SEDAN OCH ILANDE PILARNA UTGJOT BLICKANDE BISTERT OMKRING OCH ANTINOOS DROTTEN HAN RAKTE SEN PA DE ANDRA OCKSA AFSKJOT HAN DE SUCKIGA PILAR SIKTANDE RAKT FRAMAT OCH DE STUPADE TATT PA HVARANDRA MARKTES NOG ATT DEM VAR AF GUDARNA NAGON BEHJELPLIG TY STRAX FOLJANDE BLOTT SITT EGET BEVAG PALATSET HOGGO DE KRING OFVERALLT OCH ETT OMKELIGT QVIDANDE VACKTES MEDAN SKALLAR FORSPRANGDES OCH BLOD KRINGSTROMMADE GOLFVET AGAMEMNON SA VI DRAPTES OCH KROPPARNE ANNU OBEGRAFVADE LIGGA SALARNA QVAR HOS ODYSSEUS TY OM SAKEN EJ VANNERNE HORT DETMINSTA HEMMET HVILKA FRAN SAREN DEN STELNADE BLOD AFTVATTAT OCH SEDAN SORJANDE OSS BISATT SLIK ARA MAN EGNAR DE DODA HONOM TALADE TILL AGAMEMNONS VALNAD OCH SADE SALLE LAERTES ATTLING DU MANGSLUGE ODYSSEUS HOGST LYCKELIG STUND DU ISANNING VALDE DIG MAKA SA RENT HJERTA BEFANNS HOS VANKFRI PENELOPEIA DOTTREN AF IKARIOS ATT VAL HON MINDES ODYSSEUS SIN LAGGIFTA GEMAL THY SKALL EJ NANSIN DESS KYSKHETS RYKTE FORGAS MEN EN TJUSANDE SANG DE DODLIGA SKOLA DE ODODLIGE GORA TILL PRIS PENELOPEIA LIKT TYNDAREOS DOTTER EJ HON ANSTEMPLADE NIDVERK DRAPANDE LAGGIFT MAKE DERFOR EN HISKELIG VISA HON HOS MENNISKOR BLIR TY HON SAMKADE TRYCKANDE TADEL PA QVINFOLKET IALLO JA AFVEN PA DEN SOM AR ARBAR SA NU DESSE MED SADANA ORD TILLTALTE HVARANDRA STAENDE DER AIDES PALATS OCH JORDENES SKRYMSLOR DESSE ENAR UR STADEN DE GATT SNART HUNNO LAERTES VACKRA OCH KONSTFORSKONADE GODS SOM SIG HADE TILLFORNE SJELF INRATTAT LAERTES ENAR RATT MYCKET HAN AFLATS DER HAN EGDE ETT SLOTT OCH EN UTHUSBYGGNAD OMKRINGLOPP MEN DENNA BAD ATO OCH RASTADE VANLIGT OCH SOFVO DE NODTVUNGNE BETJENTER SOM ALLA HANS ARENDER SKOTTE DER SIG AFVEN BEFANN EN SIKELER GUMMA SOM GUBBEN KARVANSKAPLIGEN SKOTTE PA LANDET FJERRAN FRAN STADEN NU ODYSEUS TILL SIN SON OCH TJENARNE TALTE OCH SADE TILL VALBYGGDA PALATSET PASTUND FORFOGEN ER ALLA OCH OSS TILL MALTID SLAKTEN AF GALTARNA DEN SOM AR FETAST JAG DEREMOT VILL GE MIG ASTAD ATT PROFVA MIN FADER OM HAN MIG KANNER IGEN OCH MED OGONEN SINA FORNIMMER ELLER EJ KANNER MIG MER SOM DROJDE SA LANGE IFJERRAN ORDADE SA OCH TJENARNE GAF SIN KRIGARERUSTNING DESSE GINGO DERHOS TILL PALATSET STRAX MEN ODYSSEUS TILL MANGFRUKTIGA GARDET ATT PROFVA SIN FADER BEGAF SIG DOCK HAN EJ DOLIOS FANN DA HAN TRADDE RYMLIGA PARKEN ICKE AF TJENARNE EN EJ HELLER HANS SONER MEN DESSE ATT TORNRUSKOR SIG SAMLA SOM BLEFVE ETT STANGSEL GARDET BORTGATT HADE DEN GAMLE DEM SJELF VISADE VAGEN FADREN ALLENA HAN RAKTE UTI SKONORDNADE GARDET SKOTTANDE KRING ETT TRAD LIFROCKEN HAN HADE VAR SMUTSIG FLICKAD OCH OTILLSTANDIG OMKRING SMALBENET HAN BUNDIT FLICKADE OXHUDSSOCKOR OCKSA ATT EJ SAMKA SIG RISPOR TORNBUSKARNAS SKULL OCK HANDSKAR PA HANDREN MEN OFVERST GETSKINNSHJELMEN PA HUFVUT HAN BAR SOM OKADE JEMMERN NAR NU DIN FADER HAN SAG MANGPROFVADE ADLE ODYSSEUS HARJAD AF ALDERDOM OCH MED MYCKEN JEMMER SINNET ETT PARONTRAD HAN STANNADE GJUTANDE TARAR OCH HAN BEGRUNDADE SEDAN UTI SIN SJAL OCH SITT SINNE ANTEN ATT KYSSA SIN FAR SAMT SLUTA FAMNEN OCH ALLTING SAGA HURU HAN KOMMIT OCH LANDT TILL FADERNEJORDEN ELLER ATT FORST UTFRAGA OCH OM ALLTSAMMAN BESPORJA DEN BEGRUNDANDE SA MER GAGNELIGT SYNTES DET VARA ATT TILL EN BORJAN SOKA LIKVAL UTFORSKA MED STICKORD TANKANDE SA MOT HONOM GERAD GICK ADLE ODYSSEUS HALLANDE HUFVUDET BOJDT NEDAT HAN GRAFDE KRING TRADET MEN FRAMTRADANDE ORDADE NU DEN LYSANDE SONEN GAMLE HOS DIG OKUNNIGHET EJ SIG ROJER ATT VARDA PARKEN MEN VAL SIN SKOTSEL HAN FAR OCH ICKE DET MINSTA ICKE EN BLOMMA EN RANKA ETT FIKONATAD ELL OLIVTRAD ICKE ETT PARONTRAD ELLER BANK AR UTAN SIN SKOTSEL DOCK JAG VILL SAGA EN SAK MEN VREDGAS EJ DERFOR SINNET SJELF GOD VARD DU EJ EGER OCH ALDERDOMEN DEN BISTRA TRYCKER DIG SMUTSIG DU AR OCH OTILLSTANDIGT DIG KLADER ICKE LATTJANS SKULL OM DIG EJ VARDAR DIN HERRE TJENAREMESSIGT HOS DIG DESSUTOM EJ ROJES ATT SKADA HVARKEN TILL VEXT ELLER SKICK FASTMERA DU LIKNAR EN KONUNG SADAN LIKNAR DU SOM SEDAN HAN BADAT OCH ATIT SOFVE MJUKASTE BADD TY SADAN AR GUBBARNES VANA MEN DU VALAN MIG DETTA FORTALJ OCH NOGA BERATTA HVILKENS TJENARE AR DU HVEM OMVARDAR DU PARKEN OCK MIG DETTA FORTALJ SANNFARDIGT ATT VAL JAG VETA OM VI TILL ITHAKA VERKLIGEN LANDT SOM MIG BERATTAR DENNE MAN HOPTRAFFAD MED MIG KRINGVANDRANDE HARSTADS EJ SARDELES KLYFTIG TY EJ HAN GITTADE ALLTING SAGA EJ HELLER MITT TAL AHORA DA HONOM JAG SPORDE OM GASTVANNEN IFALL ANNU HAN LEFVER OCH FINNES ELLER AR REDAN DOD OCH UTI OSYNLIGES GARDAR TY JAG SAGER DIG RENT GIF AKT DU OCH HOR HVAD JAG TALAR FORDOM EN MAN MOTTOG JAG SOM GAST FADERNELANDET SOM VAR KOMMEN TILL OSS OCH ALDRIG EN DODELIG FREMLING TILL MITT HUS MER ALSKAD ANNU TILLFORENE LANDE HAN FRAN ITHAKA SKROT SIN ATT HARSTAMMA OCH SADE ATT LAERTES ARKEISIOS SON MAND VARA HANS FADER HONOM HEM TILL MITT HUS JAG FORDE OCH GASTADE KOSTLIGT KARVANSKAPLIGEN SKANKANDE MANGT SOM FANNS PALATSET OCK GASTSKANKER HONOM JAG GAF ALLT SASOM DET HOFDES SJU TALENTER UTAF DET VALARBETADE GULLET GAF EN BLANDNINGSPOKAL HELSILFVERNE BLOMSTERGRAVERAD ENKELKAPPOR ETT DUSSIN OCH LIKASA MANGA TAPETER KOSTLIGA MANTLAR LIKSA LIFROCKAR DERJEMTE ETT DUSSIN DESSUTOM QVINNOR JEMVAL VANKFRIA OCH SLOJDEFORFARNA DEJLIGA FYRA TILL TAL DEM HELST UTVALJA HAN VILLE HONOM HARPA GAF FADREN TILL SVAR UTGJUTANDE TARAR FREMLING DU KOMMER MINSANN TILL DET LAND OM HVILKEN DU SPORJER NU DOCK VALDSAME MAN OCH TROTSIGE HAFVA DET INNE OCH DU FORGAFVES DEDER OTALIGA SKANKERNA GIFVIT TY OM DU HONOM LEFVANDE RAKT ITHAKAS BYGDER RIKT UMGALLANDE DIG MED SKANKER HAN VISSERLIG AFSANDT OCH GND PLAGNING TY DETTA AR RATT DEN SOM BEGYNTE MEN DU VALAN MIG SAKEN FORTALJ OCH NOGA BERATTA HVILKET AR ARET SOM GAR SEN DU UNDFAGNADE HONOM DIN OLYCKLIGE GAST MIN SON OM NANSIN HAN VAR DET DEN OSALLE SOM LANGT FRAN FADERNEJORD OCH FRAN VANNER ANTINGEN FISKARNE ATO SJON ELLER OCKSA PA LANDET VARDT HAN HUNDAR OCH FAGLAR ETT ROF MEN ICKE HANS MODER HONOM VARDANDE GRET ELLER FAR VI SOM VORO FORALDRAR MAKAN DEN UTSTYRSRIKA FORSTANDIGA PENELOPEIA ICKE PA BADDEN BEGRET SIN GEMAL SOM HENNE DET ANSTATT TRYCKANDE OGONEN TILL SLIK ARA DE DODA JU TILLHOR AFVEN DETTA MIG SAG SANNFARDIGT ATT VAL JAG VETA HO AR DU HVARIFRAN HVAR HAR DU DIN STAD OCH FORALDRAR HVAR STAR SNABBA GALEJAN HAMN SOM HIT DIG HAR BRINGAT SAMT GUDLIKA KAMRATERNA MED ELLER KOM DU EN FARDSMAN HIT PA FREMMANDES SKEPP SOM DIG LANDSATTE OCH RESTE HONOM SVARANDE TALADE TILL MANGRADE ODYSSEUS DETTA TILL PUNKT OCH TILL PRICKA DIG JAG ARNAR BERATTA JAG FRAN ALYBAS AR DER STATELIG BORG JAG BESITTER TILL APHEIDAS EN SON POLYPEMONIDISKA DROTTEN MEN JAG HETER EPERITOS SJELF MIG ATER EN GUDOM FRAN SIKANIEN JAGADE VILL OARNAD TILL EDER OCH GALEJAN MIN LIGGER VID LAND AFLAGSET FRAN STADEN MEN ODYSSEUS DETTA AR REN BLAND DET FEMTE SEDAN IFRAN MITT FADERNELAND HAN RESTE OCH BORTFOR DEN OSALLE LIKVAL MED LYCKSAMA FAGLAR HAN SKILDES HOGERIFRAN HVILKA JAG GLAD AFFARDADE HONOM GLADLIG RESTE HAN SJELF OCH ANNU VI HOPPADES HJERTLIGT MANGAS GASTVANSKAP SAMT HERRLIGA SKANKER FORARA SADE OCH SMARTANS MOLN DET SVARTA BEHOLJDE LAERTES HVILKEN HANDERNA TVA UPPTOG UTKOLNADE ASKAN PA SITT GRANADE HUFVUD DEN GJOT OCH SUCKADE HOGLJUDDT OCH ODYSEUS VARDT RORD OCH NASAN IGENOM HONOM TRANGDE EN VALDSAM SUCK DA HAN SAG SIN ALSKADE FADER STRAX NU HAN RUSADE FRAM OMFAMNANDE KYSSTE OCH SADE DENSAMME MIN FADER AR JAG OM HVILKEN DU SPORJER OCH PA DET TJUGONDE ARET JAG KOM TILL FADERNEJORDEN MEN UPPHOR MED DIN GRAT OCH LEMNA DEN TARIGA SORGEN TY DIG SAGA JAG VILL OCH SARDELES MASTE VI SKYNDA SAMTLIGE FRIARNE JAG SALARNA VARA HAR NEDGJORT SAMT HJERTFRATANDE SKYMFEN OCH SKANDLIGA BRAGDERNA HAMNATS HONOM LAERTES GENMALTE DEREFTER OCH SADE OM DA NU AR ODYSEUS MIN SON SOM ANDTLIGEN HITLANDT NAMN MIG ETT TYDELIGT TECKEN PASTUND ATT JAG TROR HVAD DU SAGER HONOM SVARTE OCH TALADE TILL MANGRADE ODYSSEUS SKADA MED OGONEN FORST DET ARR SOM MIG GAF PA PARNESOS NAR JAG VAR FAREN DIT VILDSVINET MED TANDEN DEN HVITA FORDOM TY DA AFFARDADE MIG OCH VARDADE MODREN TILL MORFAR AUTOLYKOS DA ATT JAG SKULLE DE SKANKER TAGA DEM HAN HITREST MIG LOFVAT HADE OCH TILLSAGT DOCK JAG VILL TRADEN JEMVAL DEN VALPLANTERADE PARKEN TALJA DEM DU TILLFORNE MIG GAF OCH JAG ALLT BEGARTE DA JAG DIG BARNSLIG FOLJDE OCH VI FRAMGINGO EMELLAN TRANA OCH DU UPPNAMNDE MIG OCH TALJDE DEM ALLA TRETTON PARONTRAD DU MIG GAF OCH APLARNA TIO FYRTIO FIKONTRAD OCH LOFTE MIG AFVEN FORARA VINBERG FEMTIO STYCKEN TILL BERGNING DUGLIGT HVARTENDA VAR OCH ALLT SLAGS DRUFVOR PA DEM DERJEMTE BEFINNAS DA NAR OFVANIFRAN ZEUS STUNDER MED MOGNADEN KOMMA SADE OCH FADRENS KNAN SIG LOSTE OCH HJERTAT ENAR HAN TECKNEN KANDE IGEN SOM GRANNT UPPRAKNAT ODYSSEUS NU KRING SONEN HAN ARMARNA LADE OCH GUBBEN INTILL SIG DEN AFSVIMMANDE DROG MANGPROFVADE ADLE ODYSSEUS MEN DA HAN SANSADE SIG OCH BESINNINGEN VACKTES HJERTAT ATERIGEN MED FOLJANDE ORD TILLTALTE HAN SONEN ZEUS VISST J GUDAR ANNU HOGA OLYMPEN OM NU SITT OFVERDAD DE SKANDLIGE FRIARNE UMGALLT DOCK JAG HOGLIGEN RADS MIN SJAL ATT SNARLIGEN KOMMA HIT ITHAKESIER ALLE OCH BUD AFFARDA DERJEMTE TILL KEPHALLENERNES STADER ENHVAR MED MANING TILL HARNAD HONOM SVARTE OCH TALADE MANGRADE ODYSSEUS TROSTA DIG EJ DETTA DU ALLS DIP LAGGA PA SINNET UTAN LATOM OSS GA TILL HUSET SOM LIGGER VID PARKEN DIT TELEMACHOS JAG SVINHERDEN OCH OXARNES HERDE SANDE FORUT ATT DE SKULLE IHAST ANRATTA EN MALTID NAR SALUNDA DE TALT DE GINGO TILL GRANNA GEMAKEN OCH NAR DE KOMMIT HADE BONINGSBEQVAMLIGA RUMMEN FUNNO DE TELEMACHOS SVINHERDEN OCH OXARNES HERDE SKARANDE KOTTET FORE OCH MANGANDE GLODANDE VINET MEN STORSINNT LAERTES EMELLERTID DESS BONING TVAGDE EN SIKELER TARNA OCH SMORDE MED DOFTANDE OLJAN SVEPTE EN PRYDLIG MANTEL OMKRING OCH ATHENE SOM NARA STOD FOROKADE LEMMARNAS KRAFT MANNERNAS HERDE GJORDE STORRE ATT SKADA FORR OCH STOLTARE AFVEN UR BADKARET HAN STEG OCH HONOM BEUNDRADE SONEN NAR ODODLIGA GUDARNA LIK HAN SKADADE KLARLIGT HOJDE SA AFVEN SIN ROST SAMT TALADE VINGADE ORDEN FADER ISANNING HAR NAGON IBLAND STADSVARANDE GUDAR BADE TILL VETT OCH GESTALT DIG YPPARE GJORT TILL ATT PASE HONOM LAERTES DEN FORSTANDIGE SVARADE SEDAN HADE JAG FADER ZEUS OCH ATHENAIE OCH APOLLON SOM DA JAG NERIKOS TOG DEN BONINGSBEQVAMLIGA STADEN UPPA EPEIROS KOST KEPHALLENISKE KAMPARNES HOFDING HADE JAG SADAN IGAR HOS DIG SALARNA VARA BARANDE VAPEN PA AXLARNA STATT OCH MOT FRIARNES SKARA KAMPAT SKULLE MINSANN JAG KNANA MANGEN AF DESSA UTI SALARNA KNACKT OCH DU DIG FAGNAT HJERTAT SA NU DE BADA MED SADANA ORD TILLTALTE HVARANDRA MEN DA DE ANDRE SITT VARF FULLANDAT OCH RATTERNA TILLREDT SATTE SIG SAMTLIGE NED EN RAD PA BANKAR OCH STOLAR FRESTANDE SEDAN UPPA ANRATTNINGEN TRADDE SA NARA GUBBEN DOLIOS FRAM DERHOS OCK DOLIOS SONER AF SITT ARBETE TROTTE TY DEM UPPSOKTE OCH INBJOD MODREN SIKELISKA GUMMAN SOM DEM UPPFOSTRAT OCH GUBBEN KARVANSKAPLIGEN SKOTTE DA ALDERDOMEN BETRYCKTE NAR ODYSEUS DE SAGO ALLTSA OCH MARKTE SINNET STODO DE ALLA FORBLUFFADE DER MEN GENAST ODYSSEUS SMEKANDE DEM MED VANLIGA ORD TILLTALTE OCH SADE GUBBE SATT DIG TILLBORDS OCH LAGGEN ASIDO ER HAPNAD TY REN ONSKANDE LANGE ATT MED MALTIDEN BEGYNNA DROJE VI DOCK SALARNA STADS BIDANDE EDER SADE OCH DOLIOS STEG RAKT FRAM UTSTRACKANDE HANDREN BADA OCH FATTADE DA ODYSEUS VID HANDREN OCH KYSSTE HOJDE DERJEMTE SIN ROST SAMT TALADE VINGADE ORDEN ALSKADE DA DU HITHEM HOGONSKELIG LANDT OSS ALLA HVILKA EJ TRODDE DET MER OCH GUDARNE SJELFVE DIG BRINGAT HELL DIG OCH TREFALDT HELL OCH GUDARNE GIFVE DIG LYCKA OCK MIG DETTA FORMAL SANNFARDIGT ATT VAL JAG VETA OM HON SAKERT NUREDAN FORSTANDIGA PENELOPEIA VET ATT DU ATERVANDT ELLER SKOLE VI SKICKA ETT SANDBUD HONOM SVARANDE TALADE TILL MANGRADE ODYSSEUS GAMLE HON KANNER DET REN HVI SKULLE DU DEROM BESTYRA SADE MEN HAN SIG SATTE UPPA VALBONADE STOLEN DOLIOS SONER OCKSA VALKOMNADE BOLDE ODYSSEUS SAMMALUNDA MED ORDEN OCH KRAMADE HJERTLIGT HANS HANDER OCH SIG SATTE RAD VID DOLIOS SEDAN SIN FADER SA DE SALEN SAMTLIGEN VID BORDET BESTYRDE RYKTET GICK MELLERTID SOM ETT SANDBUD STADEN IGENOM BADANDE FRIARNES HISKLIGA DOD OCH BANE ALLA DE SOM HORDE DEROM SPATSERADE HADAN OCH DADAN FRAMFOR ODYSSEUS HUS MED JEMMER OCH SUCKAN OCH OLAT LIKEN UR HUSET BURO DE UT OCH ALLA BEGROFVO DEM FRAN FREMMANDE STADAR ENHVAR DE SKEPPARE GAFVO ATT TILL SITT HEM AFFORAS OCH BURO PA SNABBA GALEJOR SJELFVE DE GINGO TILLTORGS MANGRANNT MED BEANGSLADE HJERTAN MEN DA DE HADE SIG SAMLAT OCH ALLE FORSAMLADE VORO RESTE SIG UPP EUPEITHES HOPEN OCH BORJADE ORDA TY OHEJDELIG SORG LAG HONOM SINNET SONEN ANTINOOS SOM FORST NEDGJORDES AF ADLE ODYSSEUS GJUTANDE TARAR DENNE HAN HOJDE SIN STAMMA OCH SADE VANNER ODYSSEUS MINSANN STORT DAD MED ACHIVERNA STEMPLAT MANGA OCH MODIGA MAN PA GALEJORNA MED SIG HAN FORDE ODDE DE HALKADE SKEPPEN OCH FOLKEN FORSATTE OFARD OCH VID SIN AFERKOMST KEPHALLENERNAS FORSTAR HAN DRAPTE DARFOR VALAN FORRN HAN TILL PYLOS SNARLIGEN FLYKTAR ELLER TILL HERRLIGA ELIS OCKSA DER EPEIERNE HERRSKA RYCKOM ASTAD TY ELJES VI STADS VANBORDINGA VISST EN NESA AR SLIKT KOMMANDE MENSKOR ATT HORA JA OM PA SONERS DRAPARE VI OCH PA BRODERS EJ VILJE HAMNAS ATMINSTONE MIG SINNET EJ LJUFLIGT ATT LEFVA VORE MEN HELDRE JA FORR JAG ONSKADE BO HOS DE DODA RYCKOM ASTAD ATT EJ DESSE FORUT DITOFVER HINNA GRATANDE TALTE HAN SA MEDLIDANDE GREP DA ACHAIER TRADDE DA NARA INTILL DEM MEDON OCH GUDOMLIGE SANGARN UT UR ODYSSEUS RUM NAR SOMNEN HADE DEM LAMNAT MIDT HOPEN DE STODO ENHVAR VARDT SLAGEN AF HAPNAD OCH DA TALTE BLAND ALLA MEDON DEN VISE HEROLDEN LYSSNEN TILL MIG ITHAKESIER NU TY ICKE ODYSSEUS MOT ODODLIGE GUDARS BESLUT UTRATTADE DETTA SJELF JAG SKADADE EN AF DE HIMMELSKA SOM VID ODYSSEUS STOD HELT NARA ALLT FULLKOMLIGEN LIKNANDE MENTOR EN ODODELIG GUD NU VISTE SIG FRAMFOR ODYSSEUS SKANKANDE HONOM MOD NU SKRAMMANDE FRIARESKARAN GENOM SALARNA DREF DE STUPADE OFVER HVARANDRA SA HAN TALTE OCH SAMTLIGA DEM BLEK FRUKTAN BETRANGDE OCH BLAND DESSA BEGYNTE DEN ALDRIGE DROTT HALITHERSES MASTORS SON SOM SKADADE ALLT BAD FRAMAT OCH BAKAT HAN VALMENANDE ORDADE DA BLAND DESSA OCH SADE HOREN MIG NU ITHAKESIER ALLA EHVAD JAG SAGA EGEN ER VRANGSINTHET ALLT DETTA J VANNER FORSKYLLAT TY J LYDDEN EJ MIG ELLER MENTOR MANNERNES HERDE ATT SONERNA EDRA FRAN VANVETT HALLA TILLBAKA HVILKA AF OFVERDAD FOROFVADE HISKELIGT NIDVERK ODANDE GODSET UT OCH DERHOS VANARANDE MAKAN TILL DEN YPPERSTE MAN SOM DE MER HEMKOMMA EJ TRODDE SA NU MATTE DET SKE HORSAMMEN J MIG SOM JAG SAGER RYCKEN ICKE ASTAD ATT EJ SJELFVE VI SAMKA OSS OFARD SADE MEN DESSE NU RUSADE UPP MED LJUDELIGT HARSKRI FLERE HALFTEN TILL TAL HOPTRANGDE DE OFRIGE BIDDE TY HANS ORD DEM BEHAGADE EJ MEN HELDRE DE LYDDE EUPEITHES OCH TILL VAPEN PASTUND SIG SKYNDADE SEDAN MEN DA DE PAKLADT HADE KRING KROPPEN DEN BLANKANDE KOPPARN SAMLADES DE MANGRANNT FRAMFOR VIDRYMLIGA STADEN OCH EUPEITHES TAGADE SJELF DE DARAR SPETSEN TRODDE SIG SONENS DOD SA HAMNAS OCH ICKE HAN SKULLE VANDA TILLBAKA MEN SJELF DERSTADES FINNA SIN HANE ZEUS KRONION DERVID TILLTALTES UTAF ATHENAIE ACK VAR FAR KRONIDES DU HOGSTE AF KONUNGAR ALLA MIG ATSPORJANDE SAG HVAD TANKEN INOM DIG FORDOLJER ARNAR DU VAL OLYCKELIGT KRIG OCH HISKELIG HARNAD STEMPLA ANNU ELLER STALLER DU TILL BLAND HVARDERA VANSKAP MEN MOLNSKOCKAREN ZEUS GENMALTE DA HENNE OCH SADE MIN DOTTER HVARFOR OMSPORJER DU DETTA OCH FRAGAR SAG MIG HAR DU EJ SJELF MELLERTID UTTANKT OCH BESLUTIT ATT ODYSEUS DEM SKULLE NAR HEM HAN KOMMIT BESTRAFFA GOR DOCK DU SOM DU VILL SJELF SAGER JAG DET SOM SIG SKICKAR EFTER PA FRIARNE NU SIG HAMNAT DEN ADLE ODYSSEUS STIFTANDE TROGET FORBUND HAN STADS HARSTADES REGERE VI DEREMOT SONERNAS DOD OCH BRODRENS GLOMSKA BRINGA OCH DESSE FRAMDELES INBORDES FORLIKAS LIKSOM FORUT OCH SKATTER OCH FRED RIKLIGEN VARA ORDANDE SA HAN VACKTE DEN FORR ENTRAGNA ATHENE SOM FRAN OLYMPENS TOPPAR IHAST STEG NEDER TILL JORDEN NAR DE NU ALLE FORNOJT SIG UTAF HJERTFAGNANDE MALET BORJADE ORDA BLAND DEM MANGPROFVADE ADLE ODYSSEUS GANGE NU NAGON ATT SKADA OM REN OSS NARA DE ANRYCKT SADE OCK DOLIOS SON UTTRADDE SOM DENNE BEFALLTE DOCK HAN PA TROSKLEN BLEF OCH SAG DEM SAMTLIGA NARA OCH TILL ODYSSEUS STRAX SA TALADE VINGADE ORDEN REN HELT NARA DE ARO DERFOR OSS SNARLIGEN VAPNOM SA HAN TALTE DE RESTE SIG UPP OCH VAPEN SIG KLADDE KRING ODYSEUS SJELF FYRA OCH SEX AF DOLIOS SONER OCK LAERTES MED DESSA OCH DOLIOS TRADDE VAPEN SKONT GRALOCKIGE REDAN LIKVAL NODTVUNGNE ATT KAMPA MEN DA DE PAKLADT HADE KRING KROPPEN DEN BLANKANDE KOPPARN LATO DE DORRARNA OPP OCH GINGO SPETSEN ODYSSEUS NARA INTILL DEM NALKADES NU ZEUS DOTTER ATHENE MENTOR LIK TILL KROPPEN SAVAL SOM AFVEN TILL ROSTEN GLAD VID DESS ANBLICK VARDT MANGPROFVADE ADLE ODYSSEUS OCH TILLTALTE PASTUND TELEMACHOS ALSKADE SONEN TELEMACHOS REDAN DU SJELF ANRYCKANDE INSER ATT DU MANNERNAS STRID DER TAPPRASTE BUSSARNE PROFVAS EJ GOR SKAM FADERNAS ATT VI SOM ALLTID TILLFORNE VORO MOD OCH KRAFT UTMARKTE PA JORDEN DEN VIDA HONOM TELEMACHOS DEN FORSTANDIGE SVARTE OCH SADE DU SKALL SKADA MIN FAR OM DU VILL ATT MED HJERTA SOM MITT AR ALDRIG JAG SKAM PA DIN ATT ANBRINGAR SOM DU SAGER ORDADE SA LAERTES FORTJUSTES OCH TALTE OCH SADE FINNS VAL EN DAG SOM DENNE J GUDAR JAG HOGLIGEN GLADES SON MIN OCH SONSON MIN OM TAPPERHETEN NU TVISTA TRADANDE NARA INTILL KLAROGDA ATHENE BEGYNTE ARKEISIADES BLAND ALLA KAMRATER MIG KARAST SEN KLAROGDA GUDINNAN DU BEDT OCH DESS FADER KRONION SVANG DU PASTUNDEN OCH SLUNGA ASTAD LANGSKAFTIGA SPJUTET SADE OCH MYCKET MOD PAFLAKTADE PALLAS ATHENE OCH NAR SEDAN HAN BEDT ZEUS DOTTER DEN VALDIGE GUDENS SVANGDE HAN GENAST OCH SLUNGADE HAN LANGSKAFTIGA SPJUTET TRAFFANDE EUPEITHES DEN KOPPARBEKINDADE HJELMEN HVILKEN MOT SPJUTET EJ HOLL MEN SPETSEN SIG TRANGDE IGENOM STUPAD DUNKADE HAN OCH HANS VAPEN DE KLUNGO PA HONOM PA FORKAMPARNA SPRANG ODYSSEUS OCH DEN LYSANDE SONEN HUGGANDE KRING SIG MED SVARD OCH MED TVESIDSBETTIGA KASTSPJUT OCH NU SKULLE DE ALLA FORODT OCH BEROVAT DEM HEMKOMST OM EJ ATHENAIE ZEUS AIGISBARARENS DOTTER HADE LJUDLIGEN ROPT OCH SAMTLIGA MANNERNA HEJDAT ITHAKESIER HEJDEN ER NU FRAN FORDERFLIGA KRIGET ATT BLODFLODE FORUTAN NI SKYNDSAMLIGEN SKILJAS SA ATHENAIE OCH STRAX BLEK RADSLA BETOG DA DEM ALLA OCH UR DE FRUKTANDES HANDER SIN KOS BORTFLOGO GEVAREN NAR GUDINNAN HOJDE SIN ROST SAMT FOLLO PA JORDEN MEN DE SJELFVE TILL STAN HANILADE ONSKANDE RADDNING HISKLIGT SKRIADE TILL MANGPROFVADE ADLE ODYSSEUS OCH FRAMRUSADE KRUM LIKSOM HOGFLYGANDE ORNEN DA AFFARDADE OCK KRONIDES SIN FLAMMIGA LJUNGELD HVILKEN STORTADE NED FRAMFOR KLAROGDA GUDINNAN DA TILL ODYSSEUS TALTE OCKSA KLAROGDA ATHENE ZEUSBORNE LAERTIADES MANGSLUGE ODYSSEUS HEJDA DIG SLUTA NU STRIDEN UTAF SAMLOTTIGA KRIGET ATT EJ BLI KRONIDES VIDDUNDRAREN ZEUS PA DIG VREDGAD SA ATHENAIE OCH HAN STRAX LYDDE OCH GLADDES SINNET MEN FORBUND DERUPPA DEM BADA EMELLAN BESTYRDE PALLAS ATHENAIE ZEUS AIGISBARARENS DOTTER MENTOR LIK TILL KROPPEN SAVAL SOM AFVEN TILL ROSTEN SLUT