LA ODISEA PRODUCED RAMON PAJARES BOX CARLOS COLON ONLINEDISTRIBUTED PROOFREADING TEAM HTTPWWWPGDPNETNOTA DE TRANSCRIPCION EN EL TEXTO LAS CURSIVAS SE MUESTRAN ENTRE SUBRAYADOS LAS VERSALITAS SE HAN CONVERTIDO MAYUSCULAS LOS ERRORES DE IMPRENTA HAN SIDO CORREGIDOS SIN AVISAR SE HA RESPETADO LA ORTOGRAFIA DEL ORIGINAL QUE DIFIERE LIGERAMENTE DE LA ACTUAL NORMALIZANDOLA LA GRAFIA DE MAYOR FRECUENCIA SE HAN ANADIDO TILDES LAS MAYUSCULAS QUE LAS NECESITAN SE HAN HECHO LOS SIGUIENTES CAMBIOS CANTO V P VENDABAL VENDAVAL CANTO XII P VENDABAL VENDAVAL INDICE DE NOMBRES PROPIOS P VOZ NEOPTOLEMO HIJO DE ULISES HIJO DE AQUILES ALGUNAS ILUSTRACIONES SE HAN DESPLAZADO LIGERAMENTE PARA EVITAR QUE INTERRUMPIERAN UN PARRAFOLA ODISEAILUSTRACION HOMERO LA ODISEA VERSION DIRECTA LITERAL DEL GRIEGO POR LUIS SEGALA ESTALELLA DOCTOR EN FILOSOFIA LETRAS EN DERECHO CATEDRATICO DE LENGUA LITERATURA GRIEGAS DE LA UNIVERSIDAD DE BARCELONA ACADEMICO ELECTO DE LA REAL DE BUENAS LETRAS MIEMBRO DE LA ASSOCIATION POUR LENCOURAGEMENT DES ETUDES GRECQUES E INDIVIDUO DE NUMERO DE LA ILUSTRACIONES DE FLAXMAN DE WAL PAGET ILUSTRACION BARCELONA MONTANER SIMON EDITORES CALLE DE ARAGON NUM ES PROPIEDADAL LECTORASI COMO LA ILIADA PRESENTA LA GRECIA HEROICA EN SU LUCHA CONLOS HABITANTES DE LA TROADE LA ODISEA DESCRIBE LA EPOCA DE PAZDE TRANQUILIDAD DE BIENANDANZA QUE SIGUIO LA TERMINACION DELA GUERRA RELATANDO UN DRAMA DOMESTICO UNA SERIE DE AVENTURASFANTASTICAS MARAVILLOSAS AMBAS EPOPEYAS REUNIDAS FORMAN ELPANORAMA MAS ACABADO EL ECO MAS FIEL DE LOS PRIMEROS TIEMPOSHISTORICOS DE LA RAZA GRIEGA CONTIENEN TALES EJEMPLOS DE HEROISMODE AMOR PATRIO DE FIDELIDAD CONYUGAL DE RESPETO LOS ANCIANOSDE BUEN ACOGIMIENTO AL PEREGRINO DE AMISTAD ETC QUE CON RAZONHA PODIDO DECIRSE QUE TODA LA POESIA DE HOMERO ES UN ELOGIO DE LAVIRTUD SALVO LO PURAMENTE ACCESORIOYA NOTO ARISTOTELES CUAN SENCILLO ES EL ASUNTO DE LA ODISEALA VUELTA DE ULISES SU PATRIA DESPUES DE PEREGRINAR MUCHO TIEMPOY DE LUCHAR CON LAS TEMPESTADES CAUSA DEL ODIO QUE LE PROFESANEPTUNO ESTA LARGA AUSENCIA DEL HEROE MOTIVA EL VIAJE QUE HACETELEMACO PILOS ESPARTA LA VENGANZA QUE TOMA DE LOS QUE SEHAN ESTABLECIDO EN SU CASA PRETENDEN CASARSE CON PENELOPE E INTENTANMATAR TELEMACO MAS EN LA NARRACION SIGUE EL POETA EL ORDENCRONOLOGICO COMO EN LA ILIADA SINO QUE MEDIAS RES NON SECUSAC NOTAS AUDITOREM RAPIT PONIENDO EN BOCA DEL PROTAGONISTACUANTO OCURRIERA DESDE QUE ULISES LOS SUYOS SE EMBARCARON EN TROYAHASTA QUE EL HEROE LLEGO LA ISLA DE CALIPSO QUE ES PRECISAMENTE LAPARTE MAS EXTRAORDINARIA DE SUS AVENTURASAUNQUE LA ODISEA SE HA ATRIBUIDO HOMERO COMO LA ILIADADEBE DE SER ALGO POSTERIOR JUZGAR POR LOS CARACTERES QUE LADISTINGUEN CONCEPCION MAS ELEVADA DE LA DIVINIDAD MAYORPARSIMONIA EN EL USO DE LAS COMPARACIONES PREDOMINIO DE LADESCRIPCION SOBRE LA ACCION ABUNDANCIA DE NOMBRES ABSTRACTOSEN EL LENGUAJE ETC LONGINO POR MEJOR DECIR EL AUTOR DELTRATADO DE LO SUBLIME ECHA DE MENOS EN LA ODISEA EL VIGOR LASUBLIMIDAD LA PROFUSION DE AFECTOS PASIONES EL NERVIO ORATORIOY LA MULTITUD DE IMAGENES DE LA ILIADA DE SUERTE DICE QUEPUEDE COMPARARSE HOMERO EN LA ODISEA CON EL SOL EN SU OCASO ELCUAL TIENE FUERZA NI ARDOR EN LOS RAYOS PERO GUARDA TODAVIA SUMAGNITUD ATRIBUYE ESTE POEMA LA VEJEZ DE HOMERO PORQUE LOSGRANDES ESCRITORES POETAS CUANDO LES FALTA EL VIGOR DEL INGENIOPARA LO PATETICO SE DAN PINTAR LAS COSTUMBRES PERO SI MIRADALA ODISEA LA LUZ DEL ARTE RESULTA INFERIOR LA ILIADA LOMISMO EN EL TRAZADO DEL PLAN QUE EN LA VARIEDAD DE LA OBRA SON TANTIPICOS SIN DEJAR DE SER CONCRETOS VIVIENTES LOS CARACTERES DEALGUNOS DE SUS PERSONAJES COMO EL INGENIOSO PACIENTE ULISESLA CASTA DISCRETA PENELOPE EL FIEL EUMEO TAN ENCANTADOR ELVIAJE QUE NOS DESCRIBE POR REGIONES FANTASTICAS EN LAS QUE APARECENGIGANTES ANTROPOFAGOS CICLOPES SIRENAS ESCOLLOS MONSTRUOSCOMO ESCILA CARIBDIS ALMAS DE LOS MUERTOS ETC TAN GRADUADA LAPROGRESION DEL INTERES HASTA QUE LLEGA EL DESENLACE POR PREVISTOMENOS CONMOVEDOR TANTAS TALES LAS ESCENAS DEL POEMA QUE LAMAYORIA DE LOS LECTORES LES CAUSA UNA IMPRESION MAS AGRADABLE QUE LAPROPIA ILIADA LAS FRASES DEL LENGUAJE USUAL QUE PROCEDEN DE LAODISEA LOS ELEMENTOS QUE LA MISMA HA PROPORCIONADO AL FOLKLOREDE LAS NACIONES MODERNAS LA TELA DE PENELOPE EL SUPLICIO DETANTALO ESCILA CARIBDIS EL CICLOPE POLIFEMO LAS SIRENAS ETCDEMUESTRAN QUE HA SIDO SIEMPRE EL MAS POPULAR DE LOS POEMAS HOMERICOSDE ESTE LIBRO INMORTAL QUE ES LA SEGUNDA OBRA MAESTRA DE LA EPICAGRIEGA QUE EL ESTAGIRITA CONSIDERABA COMO EL MAGNIFICO ESPEJO DELA VIDA HUMANA SE HAN PUBLICADO EN ESPANA DOS EDICIONES NOTABLESEN VERSO ENDECASILABO LA CLASICA DEL SECRETARIO GONZALO PEREZEN CASTIZO LENGUAJE PERO ALGO AMPLIFICADA LA DEL EXIMIOHELENISTA CONTEMPORANEO FEDERICO BARAIBAR ZUMARRAGA QUE ES LAMAS FIEL EXACTA DE CUANTAS CONOCEMOS EN LENGUA CASTELLANAMENOR IMPORTANCIA TIENEN OTRAS TRADUCCIONES QUE HAN VISTO LA LUZPUBLICA COMO LA DE ANTONIO DE GIRONELLA PUES SUELEN SERDIRECTAS DEL TEXTO ORIGINAL SINO RESULTADO DE LA COMPARACION DEDIFERENTES VERSIONES EN IDIOMAS MODERNOS QUEREMOS CITAR OTRAVERSION ESPANOLA CALCADA SERVILMENTE SOBRE LA LITERAL FRANCESA QUESE HA DADO LUZ COMO SI EN ESPANA FUERA DESCONOCIDO YA EL GRIEGOSINO HASTA EL IDIOMA HABLADO ALLENDE LOS PIRINEOSFALTABA PUES UNA VERSION DIRECTA LITERAL DE LA ODISEA EN PROSACASTELLANA NOS ATREVEMOS DAR LA PRESENTE AL PUBLICO CON EL MISMOTEMOR DESCONFIANZA CON QUE ANTERIORMENTE LE OFRECIMOS LA DE LAILIADAHEMOS ADOPTADO EN LA ODISEA EL MISMO PROCEDIMIENTO DE TRASLADAREL TEXTO INTEGRO SIN MAS ADICIONES QUE LAS NECESARIAS PARA SUCABAL INTELIGENCIA VERTIENDO HASTA LAS CIRCUNLOCUCIONES CUANDOSON INTELIGIBLES CONSTITUYEN UN MODO RESPETUOSO DE NOMBRAR ADETERMINADOS PERSONAJES LA SACRAPOTESTAD DE ALCINOO PARA DESIGNAR AL REY DE LOS FEACIOS ETC EN LOQUE SE REFIERE LOS EPITETOS HUBIERAMOS QUERIDO SEGUIR EL CONSEJOQUE NOS DIO LA REAL ACADEMIA ESPANOLA EN SU DICTAMEN ACERCA DE LAVERSION DE LA ILIADA DE QUE SE TRADUZCAN LOS COMPUESTOS POR OTROSANALOGOS QUE SE PODRIAN FORMAR EN CASTELLANO COMO POR EJEMPLOBRACINIVEA OJILUCIDA ARGENTIPEDA QUE HEMOS USADO EN NUESTRARECIENTE TRADUCCION DE LA TEOGONIA DE HESIODO PARA INTERPRETARLAS PALABRAS QUE SON EPITETOS DELAS DIOSAS JUNO MINERVA TETIS PERO LA NECESIDAD DE ACOMODARNOSAL SISTEMA ADOPTADO EN LA VERSION DE LA ILIADA LA CONVENIENCIA DEAPLICAR EL PROCEDIMIENTO RECOMENDADO POR LA REAL ACADEMIA TODOS LOSEPITETOS APROVECHANDO LOS QUE SE HALLEN TRADUCIDOS EN LOS AUTORESCLASICOS CASTELLANOS FORJANDO LOS DEMAS AL TENOR DE LAS LEYES QUEEN NUESTRO ROMANCE REGULAN LA FORMACION DE PALABRAS LO CUAL REQUERIAUN ESTUDIO QUE NOS ERA POSIBLE HACER EN EL BREVE TIEMPO DE QUEDISPONIAMOS NOS HAN OBLIGADO DEJARLO PARA OTRA EDICION EN LA CUALCONSERVAREMOS TAMBIEN LOS NOMBRES GRIEGOS DE LAS DIVINIDADES ZEUSHERA ATENEA POR JUPITER JUNO MINERVA ETC SI EL PUBLICO SEFAMILIARIZA CON LOS MISMOSHA SERVIDO DE BASE PARA LA PRESENTE VERSION EL TEXTO DEDINDORFHENTZE PUBLICADO EN LA BIBLIOTHECA SCRIPTORUM GRAECORUM ETROMANORUM TEUBNERIANA SE HAN CONSULTADO VARIOS DICCIONARIOS YDE UN MODO ESPECIAL EL LEXICON HOMERICUM EDITADO POR EBELINGSE HAN TENIDO LA VISTA PARA LA INTERPRETACION DE ALGUNOS PASAJESLA TRADUCCION LATINA DE LA EDICION DE FIRMIN DIDOT LAS ESPANOLASDE GONZALO PEREZ BARAIBAR ANTERIORMENTE CITADAS LAS FRANCESASDE BITAUBE DUGASMONTBEL MME DACIER LE BRUNGIGUET LECONTE DE LISLE SOMMER LAS ITALIANAS DEPINDEMONTE MASPERO UNGARO DE LA SIG CORNELIASALEMOCENIGOCODEMO LA ALEMANA DE VOSS LAS INGLESAS DEPOPE BUTCHER LANG LA NEOGRIEGA DE POLYLASY PARA EVITAR EN LO POSIBLE LOS BARBARISMOS CONOCER EL RECTOSIGNIFICADO DE LAS PALABRAS LOCUCIONES CASTELLANAS SE HA ACUDIDOAL DICCIONARIO DE AUTORIDADES OTRAS OBRAS DE LA REAL ACADEMIAESPANOLA BARALT SALVA CUERVO P MIR P NONELL CORTEJONRESTANOS DAR PUBLICO TESTIMONIO DE AGRADECIMIENTO LA REAL ACADEMIAESPANOLA AL CONSEJO DE INSTRUCCION PUBLICA NUESTRO VENERADOMAESTRO EL EXCMO E ILMO SR MARCELINO MENENDEZ PELAYO ALOS EMINENTES CRITICOS PUBLICISTAS QUE CON TANTA BENEVOLENCIAJUZGARON NUESTRA VERSION DE LA ILIADA EN PROSA CASTELLANA NOSALENTARON PARA QUE EMPRENDIESEMOS LA DE LA ODISEA OJALA QUEESTOS HUMILDES TRABAJOS CONTRIBUYAN ACRECENTAR EL ENTUSIASMO PORLA MAS RICA NOBLE HERMOSA DE LAS QUE LLAMABA CERVANTES LAS REINASDE LAS LENGUAS SEA CADA VEZ MAS ADMIRADA LA LITERATURA DE AQUELPUEBLO ARTISTA CUYAS OBRAS MAESTRAS SON EL PROTOTIPO EL MODELOJAMAS SUPERADO DE LOS RESPECTIVOS GENEROS LUIS SEGALA ESTALELLANOTAS SAN BASILIOHOMILIA LOS JOVENES ACERCA DE LA UTILIDAD QUE PUEDEN SACAR DE LOS AUTORES PAGANOS ARISTOTELESPOETICA CAP XVII HORACIOEPISTOLA LOS PISONES V HERODOTO PLATON ARISTOTELES LONGINO CASI TODOS LOS GRIEGOS DE LA ANTIGUEDAD ASIGNABAN LA ODISEA EL MISMO AUTOR DE LA ILIADA ES DECIR HOMERO ALGUNOS CRITICOS DE LA EPOCA ALEJANDRINA NOTANDO CIERTAS CONTRADICCIONES QUE HAY ENTRE AMBOS POEMAS LA HIJA MAS HERMOSA DE PRIAMO ES CASANDRA SEGUN LA ILIADA LAODICE SEGUN LA ODISEA LA CIUDAD DE CRETA TIENE CIEN PUERTAS EN AQUEL POEMA TAN SOLO NOVENTA EN ESTE ETC OPINABAN QUE LA ODISEA SE DEBE HOMERO PERO SEGUIAN CREYENDO QUE HABIA SIDO COMPUESTA POR UN SOLO AUTOR LOS MODERNOS DESDE QUE VICO WOLF DIERON CONOCER SUS IDEAS SOBRE LA CUESTION HOMERICA SOSTIENEN VARIAS OPINIONES QUE PUEDEN REDUCIRSE CUATRO GRUPOS LOS QUE DEFIENDEN LA UNIDAD PRIMITIVA DE LA ODISEA YA LA ATRIBUYAN AL PROPIO HOMERO COMO NITZSCH TERRET YA FORMULEN LA HIPOTESIS DE QUE QUIZAS EL ASUNTO SE DEBA HOMERO LA EJECUCION UNO DE SUS DISCIPULOS COMO DICE MULLER LOS QUE CREEN QUE SE FORMO POR LA UNION DE CANTOS INDEPENDIENTES COMO STEINTHAL DUGASMONTBEL VOLKMANN LOS QUE OPINAN QUE EXISTIERON PRIMERAMENTE GRUPOS DE CANTOS QUE SON COMO LOS NUCLEOS DEL ACTUAL POEMA ASI KCHLY DIVIDE LA ODISEA EN DOS PARTES LA PRIMERA CANTOS IXII PRIMER TERCIO DEL XIII COMPRENDE DOS GRUPOS QUE SON EL VIAJE DE TELEMACO EN CUATRO RAPSODIAS EL REGRESO DE ULISES EN CINCO RAPSODIAS QUE PUEDEN COMPARARSE CINCO ACTOS DE UNA TRAGEDIA CALIPSO NAUSICAA ULISES EN EL PAIS DE LOS FEACIOS AVENTURAS DE ULISES REGRESO DE ULISES ITACA LA SEGUNDA ESTA CONSTITUIDA POR OCHO RAPSODIAS LAS QUE SE HAN HECHO LUEGO ALGUNAS ADICIONES LLEGADA DE ULISES ITACA ULISES EUMEO RECONOCIMIENTO DE ULISES POR TELEMACO ULISES ANTE LOS PRETENDIENTES ULISES EN LA PRESENCIA DE PENELOPE MATANZA DE LOS PRETENDIENTES ARREGLO DE LA CASA LA SEGUNDA ESCENA ENTRE LOS MUERTOS SEGUN KIRCHHOFF PUEDEN DISTINGUIRSE EN LA ODISEA TRES PARTES LA MAS ANTIGUA DESDE EL LIBRO V AL VERSO DEL XIII ES LA QUE NOS REFIERE LA LLEGADA DE ULISES AL PAIS DE LOS FEACIOS EL RELATO DE SUS ANTERIORES AVENTURAS SU PARTIDA PARA ITACA ES YA MAS RECIENTE EL RESTO DEL POEMA HASTA EL FIN EN QUE SE RELATA LA VUELTA DE ULISES SU PATRIA LA VENGANZA QUE TOMA DE LOS PRETENDIENTES LA PARTE MAS MODERNA ES LA DE LOS LIBROS IIV RELATIVOS AL VIAJE QUE ACONSEJADO POR MINERVA HACE TELEMACO PILOS ESPARTA EN BUSCA DE NOTICIAS DE SU PADRE ASI SE FORMO LA ODISEA SEGUN KIRCHHOFF SALVO ALGUNAS INTERPOLACIONES DE EPOCA POSTERIOR MR BREAL CUYA HIPOTESIS CONSISTE EN SUPONER QUE LES CHANTS HOMERIQUES ONT ETE COMPOSES POUR FAIRE PARTIE DU PROGRAMME DES JEUX ET DES FETES EN CE PAYS DE LYDIE OU LES FETES ET LES JEUX NONT JAMAIS MANQUE UNE CORPORATION FAISANT PROFESSION DE CHOISIR DANS LE REPERTOIRE DUNE MEME LEGENDE DES EPISODES VARIES LES POETES LAISSES JUSQUA UN CERTAIN POINT LEUR GENIE PROPRE MAIS NEANMOINS ASSUJETTIS UN MODELE TELLE PARAIT POUR RESOUDRE CETTE GRANDE ENIGME LEXPLICATION LA PLUS VRAISEMBLABLE MICHEL BREALPOUR MIEUX CONNAITRE HOMERE VI LOS PRETENDIENTES TIENEN NINGUNA DIVINIDAD QUE LOS PROTEJA LAS DEIDADES LUCHAN ENTRE SI COMO EN LA ILIADA PROCEDEN CASI SIEMPRE DE ACUERDO EN FAVOR DE LA JUSTICIA NEPTUNO MINERVA QUE SON LOS UNICOS DIOSES QUE ESTAN EN OPOSICIONPUES AQUEL PERSIGUE ESTA FAVORECE ULISESEJERCEN SU INFLUENCIA SIMULTANEA SINO ALTERNATIVAMENTE SIN CHOCAR EL UNO CON LA OTRA ETC SON LAS DE LA ILIADA LAS DE LA ODISEA ARISTOTELESPOETICA CAP XXIV DE LO SUBLIME CAP VII ARISTOTELESRETORICA LIB III CAP III LA ULYXEA DE HOMERO TRADUCIDA DE GRIEGO EN LENGUA CASTELLANA POR EL SECRETARIO GONZALO PEREZMADRID IMPRENTA DE FRANCISCO XAVIER GARCIA HOMEROLA ODISEATRADUCIDA DIRECTAMENTE DEL GRIEGO EN VERSO CASTELLANO POR FEDERICO BARAIBAR ZUMARRAGAMADRID LIBRERIA DE PERLADO PAEZ CA TRADUJERON TAMBIEN LA ODISEA EN VERSO CASTELLANO EL P MANUEL APONTE PROFESOR DE GRIEGO EN LA UNIVERSIDAD DE BOLONIA FRANCISCO ESTRADA CAMPOS AMBAS TRADUCCIONES QUE DEBIERON DE SER MUY NOTABLES HAN QUEDADO INEDITAS LA PRIMERA SE HA PERDIDO VEASE LA NOTICIA SOBRE HERMOSILLA SU ILIADA POR MARCELINO MENENDEZ PELAYO LA ODISEA DE HOMERO TRADUCIDA POR ANTONIO DE GIRONELLABARCELONA IMPRENTA LIBRERIA POLITECNICA DE TOMAS GORCHS EN EL PROLOGO DICE EL SR GIRONELLA ENTRE OTRAS COSAS COMO LA DE QUE GONZALO PEREZ TOMO EN SERIO SU TAREA CIERTAMENTE PUES ERA UNA CONSIDERACION PARA UN AMANTE DE LAS LETRAS EL REGALAR SU PATRIA UNA TAN PRECIOSA ANTIGUEDAD PERO EN MI ESTE PATRIOTICO IMPULSO ESTABA BALANCEADO POR DOS CONSIDERACIONES DECIA MIS INSTIGADORES PERO SI PESAR MIO CONFIESO QUE GUSTA SI SE EL GRIEGO LO PRIMERO CONTESTABAN QUE GUSTABA PORQUE LA HABIA VISTO CON DETENCION QUE CUANTO MAS ADELANTASE EN LA OBRA MAS BELLEZAS HALLARIA EN ELLA LO QUE CONFIESO HUMILDEMENTE QUE GENERALMENTE HABLANDO ASI HA ACONTECIDO LO SEGUNDO QUE EL GRIEGO DE HOMERO QUE ES UNA LENGUA GENERAL SINO UNA DE SUS CUATRO DISTINTOS DIALECTOS NADIE LO SABE ACTUALMENTE SIC COMO LO PRUEBAN LAS CONTINUAS CONTRADICCIONES QUE HAY ENTRE LOS TRADUCTORES RELATIVAMENTE AL VERDADERO SIGNIFICADO DE UNA PALABRA MISMA QUE LAS BUENAS TRADUCCIONES LATINAS ITALIANAS FRANCESAS INGLESAS ALEMANAS SON TALES DE TALES AUTORES QUE YO AUN CUANDO HALLASE SER UN PERFECTO HELENISTA NUNCA HALLARIA EN MI ORIGINAL MAS QUE LO QUE ELLOS HALLARON NI SABRIA EXPRESARLO MEJOR ALGO CONCLUYENTE ES ESTE RACIOCINIO PARA MI ESFORCE EL CONVENCIMIENTO QUE LO FUESE MAS TOME PUES LA EXACTISIMA LITERAL VERSION LATINA DE HENR STEPHANO PUBLICADA EN PARIS EN LA INGLESA DE POPE LAS FRANCESAS DE J P BITAUBE DE DUGASMONTBEL DE MADAMA DACIER DEL PRINCIPE LE BRUN EL SABIO CONCOLEGA DEL CONSUL EMPERADOR DE EUGENIO BARESTE ULTIMA QUE SE HA PUBLICADO QUE SE SUPONE SER LA MAS TECNICA QUISE APELAR MAYOR NUMERO DE MATERIALES PARA EVITAR DUDAS CONFUSIONES ESTUDIANDO BIEN COMPULSANDO ENTRE SI ESTOS AUXILIARES HALLE QUE EN EFECTO PODIA APOYARME EN ELLOS HOMEROLA ILIADAVERSION DIRECTA LITERAL POR L SEGALA CON ILUSTRACIONES DE FLAXMAN DEL PROFESOR J CHURCHBARCELONA MONTANER SIMON EDITORES ODISEA VII VIII XIII HESIODOLA TEOGONIATEXTO GRIEGO VERSION DIRECTA LITERAL POR L SEGALA E ILUSTRACIONES DE FLAXMANBARCELONA HOMERI ODYSSEA EDIDIT GUILIELMUS DINDORFEDITIO QUINTA CORRECTIOR QUAM CURAVIT C HENTZELIPSIAE AEDIBUS B G TEUBNERI ET LEXICON HOMERICUM COMPOSUERUNT F ALBRACHT C CAPELLE EBERHARD E EBERHARD B GISEKE V H KOCH C MUTZBAVER FR SCHNORR DE CAROLSFELD EDIDIT H EBELINGLIPSIAE AEDIBUS B G TEUBNERI HOMERI CARMINA ET CYCLI EPICI RELIQUIAEGRAECE ET LATINE CUM INDICE NOMINUM ET RERUMPARISIISEDITORE AMBROSIO FIRMINDIDOT HOMERELODYSSEETRADUCTION DE BITAUBEPARIS HOMERE TRADUIT EN FRANCAIS PAR DUGASMONTBELTOME SECONDODYSSEEPARIS TYPOGRAPHIE DE FIRMIN DIDOT FRERES LODYSSEE DHOMERE SUIVIE DU COMBAT DES RATS ET DES GRENOUILLES DES HYMNES DES EPIGRAMMES ET DES FRAGMENTS TRADUITS PAR MADAME DACIER ET MM TRIANON ET E FALCONNETPARISLEFEVRE EDITEUR LILIADE ET LODYSSEE DHOMERE TRADUITES DU GREC PAR LE PRINCE LE BRUNPARIS LEFEVRE OEUVRES COMPLETES DHOMERETRADUCTION NOUVELLE AVEC UNE INTRODUCTION ET DES NOTES PAR P GIGUETPARIS LIBRAIRIE HACHETTE ET CIE HOMEREODYSSEETRADUCTION NOUVELLE PAR LECONTE DE LISLEPARIS ALPHONSE LEMERRE EDITEUR LODYSSEE DHOMERETRADUCTION FRANCAISE AVEC LE TEXTE EN REGARD ET DES NOTES PAR E SOMMERPARIS LIBRAIRIE HACHETTE ET CIE ODISSEA DI OMERO TRADOTTA DA IPPOLITO PINDEMONTEMILANO SOCIETA EDITRICE SONZOGNO OMEROODISSEATRADUZIONE DI PAOLO MASPEROFIRENZE SUCCESSORI LE MONIER OMEROLODISSEA TRADOTTA LETTERALMENTE DEL DR SALVATORE UNGARONAPOLI LUIGI CHIURAZZI VOLGARIZZAMENTO PROSA DELLODISSEA DI OMERO PER CORNELIA SALEMOCENIGOCODEMOTORINO MILANO GENOVACASA EDITRICE RENZO STREGLIO HOMERS ODYSSEE UBERSETZT VON JOHANN HEINRICH VOSSWIEN POPES ODYSSEY HOMEREDITED INTRODUCTION PROFESSOR J CHURCHLONDON CASSELL COMPANY ODYSSEY HOMER DONE ENGLISH PROSE H BUTCHER LANG ALONDON MACMILLAN ET CO ILUSTRACION MINERVA PROPONE JUPITER QUE MERCURIO SE LLEGUE ACALIPSO LE MANDE QUE DESPIDA ULISESCANTO PRIMEROCONCILIO DE LOS DIOSESEXHORTACION DE MINERVA TELEMACO HABLAME MUSA DE AQUEL VARON DE MULTIFORME INGENIO QUEDESPUES DE DESTRUIR LA SACRA CIUDAD DE TROYA ANDUVO PEREGRINANDOLARGUISIMO TIEMPO VIO LAS POBLACIONES CONOCIO LAS COSTUMBRESDE MUCHOS HOMBRES PADECIO EN SU ANIMO GRAN NUMERO DE TRABAJOSEN SU NAVEGACION POR EL PONTO EN CUANTO PROCURABA SALVAR SU VIDAY LA VUELTA DE SUS COMPANEROS LA PATRIA MAS NI AUN ASI PUDOLIBRARLOS COMO DESEABA TODOS PERECIERON POR SUS PROPIAS LOCURASINSENSATOS COMIERONSE LAS VACAS DEL SOL HIJO DE HIPERION EL CUALNO PERMITIO QUE LES LLEGARA EL DIA DEL REGRESO OH DIOSA HIJA DEJUPITER CUENTANOS AUNQUE SEA MAS QUE UNA PARTE DE TALES COSAS YA EN AQUEL TIEMPO LOS QUE HABIAN PODIDO ESCAPAR DE UNA MUERTEHORROROSA ESTABAN EN SUS HOGARES SALVOS DE LOS PELIGROS DE LAGUERRA DEL MAR SOLAMENTE ULISES QUE TAN GRAN NECESIDAD SENTIADE RESTITUIRSE SU PATRIA VER SU CONSORTE HALLABASE DETENIDOEN HUECA GRUTA POR CALIPSO LA NINFA VENERANDA LA DIVINA ENTRE LASDEIDADES QUE ANHELABA TOMARLO POR ESPOSO CON EL TRANSCURSO DE LOSANOS LLEGO POR FIN LA EPOCA EN QUE LOS DIOSES HABIAN DECRETADO QUEVOLVIESE SU PATRIA ITACA AUNQUE POR ESO DEBIA PONER FIN ASUS TRABAJOS NI SIQUIERA DESPUES DE JUNTARSE CON LOS SUYOS TODOSLOS DIOSES LE COMPADECIAN EXCEPCION DE NEPTUNO QUE PERMANECIOCONSTANTEMENTE AIRADO CONTRA EL DIVINAL ULISES HASTA QUE EL HEROE NOARRIBO SU TIERRA MAS ENTONCES HABIASE IDO NEPTUNO AL LEJANO PUEBLO DE LOSETIOPESLOS CUALES SON LOS POSTREROS DE LOS HOMBRES FORMAN DOSGRUPOS QUE HABITAN RESPECTIVAMENTE HACIA EL OCASO HACIA EL ORTODEL SOLPARA ASISTIR UNA HECATOMBE DE TOROS DE CORDEROSMIENTRAS AQUEL SE DELEITABA PRESENCIANDO EL FESTIN CONGREGARONSE LASOTRAS DEIDADES EN EL PALACIO DE JUPITER OLIMPICO FUE EL PRIMERO ENUSAR DE LA PALABRA EL PADRE DE LOS HOMBRES DE LOS DIOSES PORQUE ENSU ANIMO TENIA PRESENTE AL ILUSTRE EGISTO QUIEN MATARA EL PRECLAROORESTES AGAMEMNONIDA ACORDANDOSE DE EL HABLO LOS INMORTALES DEESTA MANERA OH DIOSES DE QUE MODO CULPAN LOS MORTALES LOS NUMENES DICENQUE LAS COSAS MALAS LES VIENEN DE NOSOTROS SON ELLOS QUIENES SEATRAEN CON SUS LOCURAS INFORTUNIOS DECRETADOS POR EL DESTINO ASIOCURRIO CON EGISTO QUE OPONIENDOSE LA VOLUNTAD DEL HADO CASOCON LA MUJER LEGITIMA DEL ATRIDA MATO ESTE HEROE CUANDO TORNABAA SU PATRIA OBSTANTE QUE SUPO LA TERRIBLE MUERTE QUE PADECERIALUEGO NOSOTROS MISMOS LE HABIAMOS ENVIADO MERCURIO EL VIGILANTEARGICIDA CON EL FIN DE ADVERTIRLE QUE MATASE AQUEL NIPRETENDIERA SU ESPOSA PUES ORESTES ATRIDA TENIA QUE TOMAR VENGANZANO BIEN LLEGARA LA JUVENTUD SINTIESE EL DESEO DE VOLVER SUTIERRA ASI SE LO DECLARO MERCURIO MAS LOGRO PERSUADIRLO CON SERTAN EXCELENTE EL CONSEJO AHORA EGISTO LO HA PAGADO TODO JUNTO RESPONDIOLE MINERVA LA DEIDAD DE LOS BRILLANTES OJOS PADRENUESTRO SATURNIO EL MAS EXCELSO DE LOS QUE IMPERAN AQUEL YACE ENLA TUMBA POR HABER PADECIDO UNA MUERTE MUY JUSTIFICADA ASI PEREZCAQUIEN OBRE DE SEMEJANTE MODO PERO SE QUIEBRA EL CORAZON POR ELPRUDENTE DESGRACIADO ULISES QUE MUCHO TIEMPO HA PADECE PENASLEJOS DE LOS SUYOS EN UNA ISLA AZOTADA POR LAS OLAS EN EL CENTRODEL MAR ISLA POBLADA DE ARBOLES EN LA CUAL TIENE SU MANSION UNADIOSA LA HIJA DEL TERRIBLE ATLANTE DE AQUEL QUE CONOCE TODAS LASPROFUNDIDADES DEL PONTO SOSTIENE LAS GRANDES COLUMNAS QUE SEPARANLA TIERRA EL CIELO LA HIJA DE ESTE DIOS RETIENE AL INFORTUNADOY AFLIGIDO ULISES CEJANDO EN SU PROPOSITO DE EMBELESARLE CONTIERNAS SEDUCTORAS PALABRAS PARA QUE OLVIDE ITACA MAS EL HEROEQUE ESTA DESEOSO DE VER EL HUMO DE SU PAIS NATAL YA DE MORIR SIENTEANHELOS TI JUPITER OLIMPICO SE TE CONMUEVE EL CORAZON NOTE ERA ACEPTO ULISES CUANDO SACRIFICABA JUNTO LOS BAJELES DE LOSARGIVOS POR QUE ASI TE AIRADO CONTRA EL OH JOVE CONTESTOLE JUPITER QUE AMONTONA LAS NUBES HIJA MIA QUEPALABRAS SE TE ESCAPARON DEL CERCO DE LOS DIENTES COMO QUIERESQUE PONGA EN OLVIDO AL DIVINAL ULISES QUE POR SU INTELIGENCIA SESENALA SOBRE LOS DEMAS MORTALES SIEMPRE OFRECIO MUCHOS SACRIFICIOSA LOS INMORTALES DIOSES QUE POSEEN EL ANCHUROSO CIELO PERO NEPTUNOQUE CINE LA TIERRA LE GUARDA VIVO CONSTANTE RENCOR PORQUE CEGOAL CICLOPE AL DEIFORME POLIFEMO QUE ES EL MAS FUERTE DE TODOS LOSCICLOPES NACIO DE LA NINFA TOOSA HIJA DE FORCIS QUE IMPERA ENEL MAR ESTERIL DESPUES QUE ESTA SE AYUNTARA CON NEPTUNO EN HONDACUEVA DESDE ENTONCES NEPTUNO QUE SACUDE LA TIERRA SI BIEN SE HAPROPUESTO MATAR ULISES HACE QUE VAYA ERRANTE LEJOS DE SU PATRIAMAS EA TRATEMOS DE LA VUELTA DEL MISMO DEL MODO COMO HAYA DELLEGAR SU PATRIA NEPTUNO DEPONDRA LA COLERA QUE LE FUERAPOSIBLE CONTENDER SOLO CONTRA LA VOLUNTAD DE LOS DIOSES CON LOSINMORTALES TODOS RESPONDIOLE MINERVA LA DEIDAD DE LOS BRILLANTES OJOS PADRENUESTRO SATURNIO EL MAS EXCELSO DE LOS QUE IMPERAN SI LES PLACE ALOS BIENAVENTURADOS DIOSES QUE EL PRUDENTE ULISES VUELVA SU CASAMANDEMOS MERCURIO EL MENSAJERO ARGICIDA LA ISLA OGIGIA YMANIFIESTE CUANTO ANTES LA NINFA DE HERMOSAS TRENZAS LA RESOLUCIONQUE HEMOS TOMADO PARA QUE EL HEROE SE PONGA EN CAMINO YO EN TANTOYENDOME ITACA INSTIGARE VIVAMENTE SU HIJO LE INFUNDIRE VALOREN EL PECHO PARA QUE LLAME AL AGORA LOS AQUEOS DE LARGA CABELLERAY PROHIBA LA ENTRADA EN EL PALACIO TODOS LOS PRETENDIENTES QUEDE CONTINUO LE DEGUELLAN MUCHISIMAS OVEJAS FLEXIPEDES BUEYES DERETORCIDOS CUERNOS LE LLEVARE DESPUES ESPARTA LA ARENOSAPILOS PARA QUE PREGUNTANDO VIENDO SI PUEDE ADQUIRIR NOTICIAS DE SUPADRE CONSIGA GANAR HONROSA FAMA ENTRE LOS HOMBRES DICHO ESTO CALZOSE LOS AUREOS DIVINOS TALARES QUE LA LLEVABANSOBRE EL MAR SOBRE LA TIERRA INMENSA CON LA RAPIDEZ DEL VIENTOY ASIO LA LANZA FORNIDA DE PUNTA DE BRONCE PONDEROSA LUENGAROBUSTA CON QUE LA HIJA DEL PREPOTENTE PADRE DESTRUYE FILAS ENTERASDE HEROES SIEMPRE QUE CONTRA ELLOS MONTA EN COLERA DESCENDIOPRESUROSA DE LAS CUMBRES DEL OLIMPO ENCAMINANDOSE AL PUEBLO DEITACA DETUVOSE EN EL VESTIBULO DE LA MORADA DE ULISES EN EL UMBRALQUE PRECEDIA AL PATIO MINERVA EMPUNABA LA BRONCINEA LANZA HABIATOMADO LA FIGURA DE UN EXTRANJERO DE MENTES REY DE LOS TAFIOSHALLO LOS SOBERBIOS PRETENDIENTES QUE PARA RECREAR EL ANIMOJUGABAN LOS DADOS ANTE LA PUERTA DE LA CASA SENTADOS SOBRE CUEROSDE BUEYES QUE ELLOS MISMOS MATARAN VARIOS HERALDOS DILIGENTESSERVIDORES MEZCLABANLES VINO AGUA EN LAS CRATERAS OTROSLIMPIABAN LAS MESAS CON ESPONJAS DE MUCHOS OJOS COLOCABANLAS EN SUSITIO TRINCHABAN CARNE EN ABUNDANCIA FUE EL PRIMERO EN ADVERTIR LA PRESENCIA DE LA DIOSA EL DEIFORMETELEMACO PUES SE HALLABA EN MEDIO DE LOS PRETENDIENTES CON ELCORAZON APESADUMBRADO TENIA EL PENSAMIENTO FIJO EN SU VALEROSOPADRE POR SI VOLVIENDO DISPERSASE AQUELLOS RECUPERARA LADIGNIDAD REAL EL DOMINIO DE SUS RIQUEZAS TALES COSAS MEDITABASENTADO CON LOS PRETENDIENTES CUANDO VIO MINERVA LA HORA FUESEDERECHO AL VESTIBULO MUY INDIGNADO EN SU CORAZON DE QUE UN HUESPEDTUVIESE QUE ESPERAR TANTO TIEMPO EN LA PUERTA ASIO POR LA MANO LADIOSA TOMOLE LA BRONCINEA LANZA LE DIJO ESTAS ALADAS PALABRAS SALVE HUESPED ENTRE NOSOTROS DE RECIBIR AMISTOSOACOGIMIENTO DESPUES QUE HAYAS COMIDO NOS DIRAS SI NECESITAS ALGO HABLANDO ASI EMPEZO CAMINAR PALAS MINERVA LE FUE SIGUIENDOYA EN EL INTERIOR DEL EXCELSO PALACIO TELEMACO ARRIMO LA LANZA AUNA ALTA COLUMNA METIENDOLA EN LA PULIMENTADA LANCERA DONDE HABIAMUCHAS LANZAS DEL PACIENTE ULISES HIZO SENTAR LA DIOSA EN UNSILLON DESPUES DE TENDER EN EL SUELO LINDA ALFOMBRA BORDADA DECOLOCAR EL ESCABEL PARA LOS PIES ACERCO PARA SI UNA LABRADA SILLAPONIENDOLO TODO APARTE DE LOS PRETENDIENTES PARA QUE AL HUESPEDNO LE DESPLACIERA LA COMIDA MOLESTADO POR EL TUMULTO DE AQUELLOSVARONES SOBERBIOS EL SU VEZ PUDIERA INTERROGARLE SOBRE SUPADRE AUSENTE UNA ESCLAVA LES DIO AGUAMANOS QUE TRAIA EN MAGNIFICOJARRO DE ORO VERTIO EN FUENTE DE PLATA LES PUSO DELANTE UNAPULIMENTADA MESA LA VENERANDA DESPENSERA TRAJOLES PAN DEJO ENLA MESA BUEN NUMERO DE MANJARES OBSEQUIANDOLES CON LOS QUE TENIARESERVADOS EL TRINCHANTE SIRVIOLES PLATOS DE CARNE DE TODAS SUERTESY COLOCO SU VERA AUREAS COPAS UN HERALDO SE ACERCABA MENUDOPARA ESCANCIARLES VINO YA EN ESTO ENTRARON LOS ORGULLOSOS PRETENDIENTES APENAS SEHUBIERON SENTADO POR ORDEN EN SILLAS SILLONES LOS HERALDOSDIERONLES AGUAMANOS LAS ESCLAVAS AMONTONARON EL PAN EN LOSCANASTILLOS LOS MANCEBOS LLENARON LAS CRATERAS TODOS LOSCOMENSALES ECHARON MANO LAS VIANDAS QUE LES HABIAN SERVIDOSATISFECHAS LAS GANAS DE COMER DE BEBER OCUPARONLES EL PENSAMIENTOOTRAS COSAS EL CANTO EL BAILE QUE SON LOS ORNAMENTOS DEL CONVITEUN HERALDO PUSO LA BELLISIMA CITARA EN LAS MANOS DE FEMIO QUIENOBLIGABAN CANTAR ANTE LOS PRETENDIENTES MIENTRAS FEMIO COMENZABAAL SON DE LA CITARA UN HERMOSO CANTO TELEMACO DIJO ESTAS RAZONES AMINERVA LA DE LOS BRILLANTES OJOS DESPUES DE APROXIMAR SU CABEZA ALA DEIDAD PARA QUE LOS DEMAS SE ENTERARAN CARO HUESPED TE ENOJARAS CONMIGO POR LO QUE VOY DECIRESTOS SOLO SE OCUPAN EN COSAS TALES COMO LA CITARA EL CANTO YNADA LES CUESTA PUES DEVORAN IMPUNEMENTE LA HACIENDA DE OTRO LADE UN VARON CUYOS BLANCOS HUESOS SE PUDREN EN EL CONTINENTE POR LAACCION DE LA LLUVIA LOS REVUELVEN LAS OLAS EN EL SENO DEL MAR SILE VIERAN APORTAR ITACA PREFERIRIAN TENER LOS PIES LIGEROS SERRICOS DE ORO DE VESTIDOS MAS AQUEL YA MURIO VICTIMA DE SU ACIAGODESTINO HAY QUE ESPERAR EN SU TORNADA AUNQUE ALGUNO DE LOSHOMBRES TERRESTRES AFIRME QUE AUN HA DE VOLVER EL DIA DE SU REGRESONO AMANECERA JAMAS PERO EA HABLA RESPONDE SINCERAMENTE QUIENERES DE QUE PAIS PROCEDES DONDE SE HALLAN TU CIUDAD TUS PADRESEN CUAL EMBARCACION LLEGASTE COMO LOS MARINEROS TE TRAJERON AITACA QUIENES SE PRECIAN DE SER PUES FIGURO QUE HAYAS VENIDOANDANDO DIME TAMBIEN LA VERDAD DE ESTO PARA QUE ENTERE VIENESAHORA POR VEZ PRIMERA SIDO HUESPED DE MI PADRE QUE SON MUCHOSLOS QUE CONOCEN NUESTRA CASA PORQUE ULISES ACOSTUMBRABA VISITAR ALOS DEMAS HOMBRES RESPONDIOLE MINERVA LA DEIDAD DE LOS BRILLANTES OJOS DE TODOESTO VOY INFORMARTE CIRCUNSTANCIADAMENTE JACTO DE SER MENTESHIJO DEL BELICOSO ANQUIALO DE REINAR SOBRE LOS TAFIOS AMANTES DEMANEJAR LOS REMOS LLEGADO EN MI GALERA CON MI GENTE PUES NAVEGOPOR EL VINOSO PONTO HACIA UNOS HOMBRES QUE HABLAN OTRO LENGUAJEVOY TEMESA PARA TRAER BRONCE LLEVANDOLES LUCIENTE HIERRO ANCLELA EMBARCACION CERCA DEL CAMPO ANTES DE LLEGAR LA CIUDAD EN ELPUERTO RETRO QUE ESTA AL PIE DEL SELVOSO NEYO NOS CABE LA HONRADE QUE YA NUESTROS PROGENITORES SE DABAN MUTUA HOSPITALIDAD DESDEMUY ANTIGUO COMO SE LO PUEDES PREGUNTAR AL HEROE LAERTES EL CUALSEGUN HAN DICHO YA VIENE LA POBLACION SINO QUE MORA EN ELCAMPO ATORMENTANLE LOS PESARES TIENE UNA ANCIANA ESCLAVA QUE LEAPAREJA LA COMIDA LE DA DE BEBER CUANDO SE LE CANSAN LOS MIEMBROSDE ARRASTRARSE POR LA FERTIL VINA VINE PORQUE ASEGURARON QUE TUPADRE ESTABA DE VUELTA EN LA POBLACION MAS SIN DUDA LO IMPIDEN LASDEIDADES PONIENDO OBSTACULOS SU RETORNO QUE EL DIVINAL ULISES NODESAPARECIO AUN DE LA FERTIL TIERRA PUES VIVE ESTA DETENIDO EN ELVASTO PONTO EN UNA ISLA QUE SURGE DE ENTRE LAS OLAS DESDE QUE CAYOEN PODER DE HOMBRES CRUELES SALVAJES QUE LO RETIENEN SU DESPECHOVOY AHORA PREDECIR LO QUE HA DE SUCEDER SEGUN LOS DIOSES LOINSPIRAN EN EL ANIMO YO CREO QUE HA DE VERIFICARSE PORQUE SOYADIVINO NI HABIL INTERPRETE DE SUENOS AQUEL ESTARA LARGO TIEMPOFUERA DE SU PATRIA AUNQUE LO SUJETEN FERREAS VINCULOS ANTES HALLARAALGUN MEDIO PARA VOLVER YA QUE ES INGENIOSO EN SUMO GRADO MASEA HABLA DIME CON SINCERIDAD SI ERES EL HIJO DEL PROPIO ULISESES EXTRAORDINARIO TU PARECIDO EN LA CABEZA EN LOS BELLOS OJOS CONULISES BIEN LO RECUERDO PUES NOS REUNIAMOS MENUDO ANTES DE QUESE EMBARCARA PARA TROYA ADONDE FUERON LOS PRINCIPES ARGIVOS EN LASCONCAVAS NAOS DESDE ENTONCES NI YO LE VISTO NI EL MI CONTESTOLE EL PRUDENTE TELEMACO VOY HABLARTE OH HUESPED CONGRAN SINCERIDAD MI MADRE AFIRMA QUE SOY HIJO DE AQUEL SE MASQUE NADIE CONSIGUIO CONOCER POR SI SU PROPIO LINAJE OJALA QUE FUERAVASTAGO DE UN HOMBRE DICHOSO QUE ENVEJECIESE EN SU CASA RODEADO DESUS RIQUEZAS MAS AHORA DICEN QUE DESCIENDO YA QUE LO PREGUNTASDEL MAS INFELIZ DE LOS MORTALES HOMBRES REPLICOLE MINERVA LA DEIDAD DE LOS BRILLANTES OJOS LOSDIOSES DEBEN DE HABER DISPUESTO QUE TU LINAJE SEA OBSCUROCUANDO PENELOPE TE HA PARIDO CUAL ERES MAS EA HABLA DIME CONFRANQUEZA QUE COMIDA QUE REUNION ES ESTA QUE NECESIDAD TIENESDE DARLA SE CELEBRA UN CONVITE UN CASAMIENTO QUE NOS HALLAMOSEVIDENTEMENTE EN UN FESTIN ESCOTE PARECEME QUE LOS QUE COMEN EN ELPALACIO CON TAL ARROGANCIA ULTRAJAN ALGUIEN PUES CUALQUIER HOMBRESENSATO SE INDIGNARIA AL PRESENCIAR SUS MUCHAS TORPEZAS CONTESTOLE EL PRUDENTE TELEMACO HUESPED YA QUE TALES COSASPREGUNTAS E INQUIERES SABE QUE ESTA CASA HUBO DE SER OPULENTA YRESPETADA EN CUANTO AQUEL VARON PERMANECIO EN EL PUEBLO CAMBIODESPUES LA VOLUNTAD DE LOS DIOSES QUIENES MAQUINANDO MALES HANHECHO DE ULISES EL MAS IGNORADO DE TODOS LOS HOMBRES QUE YO MEAFLIGIERA DE TAL SUERTE SI ACABARA LA VIDA ENTRE SUS COMPANEROSEN EL PAIS DE TROYA EN BRAZOS DE SUS AMIGOS LUEGO QUE TERMINO LAGUERRA PUES ENTONCES TODOS LOS AQUEOS LE HABRIAN ERIGIDO UN TUMULOY HUBIESE LEGADO SU HIJO UNA GLORIA INMENSA AHORA DESAPARECIO SINFAMA ARREBATADO POR LAS HARPIAS SU MUERTE FUE OCULTA E IGNOTA YTAN SOLO DEJO PESARES LLANTO LAMENTO GIMO UNICAMENTEPOR EL QUE LOS DIOSES HAN ENVIADO OTRAS FUNESTAS CALAMIDADESCUANTOS PROCERES MANDAN EN LAS ISLAS EN DULIQUIO EN ENLA SELVOSA ZACINTO CUANTOS IMPERAN EN LA ASPERA ITACA TODOSPRETENDEN MI MADRE ARRUINAN NUESTRA CASA MI MADRE NI RECHAZA LASODIOSAS NUPCIAS NI SABE PONER FIN TALES COSAS AQUELLOS COMEN YAGOTAN MI HACIENDA PRONTO ACABARAN CONMIGO MISMO CONTESTOLE MINERVA MUY INDIGNADA OH DIOSES QUE FALTANO TE HACE EL AUSENTE ULISES PARA QUE PONGA LAS MANOS EN LOSDESVERGONZADOS PRETENDIENTES SI TORNARA APARECIERA ANTE EL PORTALDE ESTA CASA CON SU YELMO SU ESCUDO SUS DOS LANZAS COMO LAPRIMERA VEZ QUE LE VI EN LA MIA BEBIENDO RECREANDOSE CUANDOVOLVIO DE EFIRA DEL PALACIO DE ILO MERMERIDAFUE ALLA EN SU VELERANAVE POR UN VENENO MORTAL CON QUE PUDIESE TENIR LAS BRONCINEASFLECHAS PERO ILO TEMEROSO DE LOS SEMPITERNOS DIOSES SE LOPROPORCIONO ENTREGOSELO MI PADRE QUE LE QUERIA MUCHISIMOSI PUESMOSTRANDOSE TAL SE ENCONTRARA ULISES CON LOS PRETENDIENTES FUERACORTA LA VIDA DE ESTOS BIEN AMARGAS SUS NUPCIAS MAS ESTA PUESTO ENMANO DE LOS DIOSES SI HA DE VOLVER TOMAR VENGANZA EN SU PALACIOY TE EXHORTO QUE DESDE LUEGO MEDITES COMO ARROJARAS DE AQUI LOSPRETENDIENTES OYEME SI TE PLACE PRESTA ATENCION MIS PALABRASMANANA CONVOCA EN EL AGORA LOS HEROES AQUEOS HABLALES TODOS YSEAN TESTIGOS LAS PROPIAS DEIDADES INTIMA LOS PRETENDIENTES QUESE SEPAREN YENDOSE SUS CASAS SI TU MADRE EL ANIMO LA MUEVEA CASARSE VUELVA AL PALACIO DE SU MUY PODEROSO PADRE ALLI LEDISPONDRAN LAS NUPCIAS LE APAREJARAN UNA DOTE TAN CUANTIOSA COMODEBE LLEVAR UNA HIJA AMADA TAMBIEN TI TE DARE UN PRUDENTE CONSEJOPOR SI TE DECIDIERAS SEGUIRLO APRESTA LA MEJOR EMBARCACION QUEHALLARES CON VEINTE REMEROS PREGUNTAR POR TU PADRE CUYAAUSENCIA SE HACE YA TAN LARGA QUIZAS ALGUN MORTAL TE HABLARA DELMISMO LLEGARA TUS OIDOS LA FAMA QUE PROCEDE DE JUPITER ES LAQUE MAS DIFUNDE LA GLORIA DE LOS HOMBRES TRASLADATE PRIMERAMENTEA PILOS E INTERROGA AL DIVINAL NESTOR DESDE ALLI ENDEREZA LOSPASOS ESPARTA AL RUBIO MENELAO QUE HA LLEGADO EL POSTRERO DE LOSARGIVOS DE BRONCINEAS LORIGAS SI OYERES DECIR QUE TU PADRE VIVE HADE VOLVER SUFRELO TODO UN ANO MAS AUNQUE ESTES AFLIGIDO PERO SI TEPARTICIPAREN QUE HA MUERTO YA EXISTE RETORNA SIN DILACION LAPATRIA ERIGELE UN TUMULO HAZLE LAS MUCHAS EXEQUIAS QUE SE LE DEBENY BUSCALE TU MADRE UN ESPOSO ASI QUE HAYAS REALIZADO LLEVADOA CUMPLIMIENTO TODAS ESTAS COSAS MEDITA EN TU MENTE EN TU CORAZONCOMO MATARAS LOS PRETENDIENTES EN EL PALACIO SI CON DOLO LADESCUBIERTA PORQUE ES PRECISO QUE ANDES EN NINERIAS QUE YA NOTIENES EDAD PARA ELLO POR VENTURA SABES CUANTA GLORIA HA GANADOANTE LOS HOMBRES EL DIVINAL ORESTES DESDE QUE MATO AL PARRICIDA ALDOLOSO EGISTO QUE LE HABIA ASESINADO SU ILUSTRE PADRE TAMBIEN TUAMIGO YA QUE VEO QUE ERES GALLARDO DE ELEVADA ESTATURA SE FUERTEPARA QUE LOS VENIDEROS TE ELOGIEN YO VOY HACIA LA VELERA NAVEY LOS AMIGOS QUE YA DEBEN DE ESTAR CANSADOS DE ESPERARME CUIDA DEHACER CUANTO TE DIJE ACUERDATE DE MIS CONSEJOS RESPONDIOLE EL PRUDENTE TELEMACO DICES ESTAS COSAS DE UNAMANERA TAN BENEVOLA COMO UN PADRE SU HIJO QUE NUNCA JAMAS PODREOLVIDARLAS PERO EA AGUARDA UN POCO AUNQUE TENGAS PRISA POR IRTEY DESPUES QUE TE BANES DELEITES TU CORAZON VOLVERAS ALEGREMENTEA TU NAVE LLEVANDOTE UN REGALO PRECIOSO MUY BELLO PARA GUARDARLOCOMO PRESENTE MIO QUE TAL ES LA COSTUMBRE QUE SUELE SEGUIRSE CON LOSHUESPEDES AMADOS CONTESTOLE MINERVA LA DEIDAD DE LOS BRILLANTES OJOS MEDETENGAS OPONIENDOTE MI DESEO DE IRME EN SEGUIDA EL REGALO CONQUE TU CORAZON QUIERE OBSEQUIARME LO ENTREGARAS LA VUELTA PARAQUE LO LLEVE MI CASA ESCOGELO MUY HERMOSO SERA JUSTO QUE TELO RECOMPENSE CON OTRO SEMEJANTE DICIENDO ASI PARTIO MINERVA LA DE LOS BRILLANTES OJOS FUESELA DIOSA VOLANDO COMO UN PAJARO DESPUES DE INFUNDIR EN EL ESPIRITUDE TELEMACO VALOR AUDACIA DE AVIVARLE AUN MAS EL RECUERDO DESU PADRE TELEMACO CONSIDERANDO EN SU MENTE LO OCURRIDO QUEDOSEATONITO PORQUE YA SOSPECHO QUE HABIA HABLADO CON UNA DEIDAD YAQUEL VARON QUE PARECIA UN DIOS SE APRESURO JUNTARSE CON LOSPRETENDIENTES ANTE ESTOS QUE LE OIAN SENTADOS SILENCIOSOS CANTABA ELILUSTRE AEDO LA VUELTA DEPLORABLE QUE PALAS MINERVA DEPARARA ALOS AQUIVOS CUANDO PARTIERON DE TROYA LA DISCRETA PENELOPE HIJADE ICARIO OYO DE LO ALTO DE LA CASA LA DIVINAL CANCION QUE LELLEGABA AL ALMA BAJO POR LA LARGA ESCALERA PERO SOLA PUESLA ACOMPANABAN DOS ESCLAVAS CUANDO LA DIVINA ENTRE LAS MUJERESLLEGO ADONDE ESTABAN LOS PRETENDIENTES DETUVOSE CABE LA COLUMNAQUE SOSTENIA EL TECHO SOLIDAMENTE CONSTRUIDO CON LAS MEJILLASCUBIERTAS POR ESPLENDIDO VELO UNA HONRADA DONCELLA CADA LADO YARRASANDOSELE LOS OJOS DE LAGRIMAS HABLOLE ASI AL DIVINAL AEDO FEMIO PUES QUE SABES OTRAS MUCHAS HAZANAS DE HOMBRES DEDIOSES QUE RECREAN LOS MORTALES SON CELEBRADAS POR LOS AEDOSCANTALES ALGUNA DE LAS MISMAS SENTADO AHI EN EL CENTRO OIGANLATODOS SILENCIOSAMENTE BEBIENDO VINO PERO DEJA ESE CANTO TRISTEQUE ANGUSTIA EL CORAZON EN EL PECHO YA QUE SE APODERA DE MI UNPESAR GRANDISIMO TAL ES LA PERSONA DE QUIEN PADEZCO SOLEDAD PORACORDARME SIEMPRE DE AQUEL VARON CUYA FAMA ES GRANDE EN LA HELADE YEN EL CENTRO DE ARGOS REPLICOLE EL PRUDENTE TELEMACO MADRE MIA POR QUE QUIERESPROHIBIR AL AMABLE AEDO QUE NOS DIVIERTA COMO SU MENTE SE LO INSPIRENO SON LOS AEDOS LOS CULPABLES SINO JUPITER QUE DISTRIBUYE SUSPRESENTES LOS VARONES DE INGENIO DEL MODO QUE LE PLACE HA DEINCREPARSE FEMIO PORQUE CANTA LA SUERTE ACIAGA DE LOS DANAOS PUESLOS HOMBRES ALABAN CON PREFERENCIA EL CANTO MAS NUEVO QUE LLEGA ASUS OIDOS RESIGNATE EN TU CORAZON EN TU ANIMO OIR ESE CANTOYA QUE FUE ULISES EL UNICO QUE PERDIO EN TROYA LA ESPERANZA DEVOLVER HUBO OTROS MUCHOS QUE TAMBIEN PERECIERON MAS VUELVE YA ATU HABITACION OCUPATE EN LAS LABORES QUE TE SON PROPIAS EL TELAR YLA RUECA ORDENA LAS ESCLAVAS QUE SE APLIQUEN AL TRABAJO DEHABLAR NOS CUIDAREMOS LOS HOMBRES PRINCIPALMENTE YO CUYO ES ELMANDO EN ESTA CASA VOLVIOSE PENELOPE MUY ASOMBRADA SU HABITACION REVOLVIENDOEN EL ANIMO LAS DISCRETAS PALABRAS DE SU HIJO ASI QUE HUBO SUBIDOCON LAS ESCLAVAS LO ALTO DE LA CASA ECHOSE LLORAR POR ULISESSU CARO CONSORTE HASTA QUE MINERVA LA DE LOS BRILLANTES OJOS LEDIFUNDIO EN LOS PARPADOS EL DULCE SUENO LOS PRETENDIENTES MOVIAN ALBOROTO EN LA OBSCURA SALA TODOSDESEABAN ACOSTARSE CON PENELOPE EN SU MISMO LECHO MAS EL PRUDENTETELEMACO COMENZO DECIRLES PRETENDIENTES DE MI MADRE QUE OS PORTAIS CON ORGULLOSAINSOLENCIA GOCEMOS AHORA DEL FESTIN CESEN VUESTROS GRITOS PUES ESMUY HERMOSO ESCUCHAR UN AEDO COMO ESTE TAN PARECIDO POR SU VOZ ALAS PROPIAS DEIDADES AL ROMPER EL ALBA NOS REUNIREMOS EN EL AGORAPARA QUE YO OS DIGA SIN REBOZO QUE SALGAIS DEL PALACIO DISPONEDOTROS FESTINES COMEOS VUESTROS BIENES CONVIDANDOOS SUCESIVA YRECIPROCAMENTE EN VUESTRAS CASAS MAS SI OS PARECIERE MEJOR MASACERTADO DESTRUIR IMPUNEMENTE LOS BIENES DE UN SOLO HOMBRE SEGUIDCONSUMIENDOLOS QUE YO INVOCARE LOS SEMPITERNOS DIOSES POR SIALGUN DIA NOS CONCEDE JUPITER QUE VUESTRAS OBRAS SEAN CASTIGADAS YQUIZAS MURAIS EN ESTE PALACIO SIN QUE NADIE OS VENGUE ASI DIJO TODOS SE MORDIERON LOS LABIOS ADMIRANDOSE DE QUETELEMACO LES HABLASE CON TANTA AUDACIA PERO ANTINOO HIJO DE EUPITES LE REPUSO DICIENDO TELEMACOSON CIERTAMENTE LOS MISMOS DIOSES QUIENES TE ENSENAN SERGRANDILOCUO ARENGAR CON AUDACIA MAS QUIERA EL SATURNIO QUELLEGUES SER REY DE ITACA RODEADA POR EL MAR COMO TE CORRESPONDEPOR EL LINAJE DE TU PADRE CONTESTOLE EL PRUDENTE TELEMACO ANTINOO TE ENFADARASACASO POR LO QUE VOY DECIR ES VERDAD QUE GUSTARIA SERLO SIJUPITER LO CONCEDIERA CREES POR VENTURA QUE EL REINAR SEA LAPEOR DESGRACIA PARA LOS HOMBRES ES MALO SER REY PORQUE LA CASADEL MISMO SE ENRIQUECE PRONTO SU PERSONA SE MAS HONRADA PEROMUCHOS PRINCIPES AQUIVOS ENTRE JOVENES ANCIANOS VIVEN EN ITACARODEADA POR EL MAR REINE CUALQUIERA DE ELLOS YA QUE MURIO ELDIVINAL ULISES YO SERE SENOR DE MI CASA DE LOS ESCLAVOS QUE ESTEADQUIRIO PARA MI COMO BOTIN DE GUERRA RESPONDIOLE EURIMACO HIJO DE POLIBO TELEMACO ESTA PUESTOEN MANO DE LOS DIOSES CUAL DE LOS AQUEOS HA DE SER EL REY DE ITACARODEADA POR EL MAR PERO TU SIGUE DISFRUTANDO DE TUS BIENES MANDAEN TU PALACIO JAMAS MIENTRAS ITACA SEA HABITADA VENGA HOMBREALGUNO DESPOJARTE DE LOS MISMOS CONTRA TU QUERER AHORA OPTIMOTELEMACO DESEO PREGUNTARTE POR EL HUESPED DE DONDE VINO TALSUJETO DE QUE TIERRA SE GLORIA DE SER EN QUE PAIS SE HALLAN SUFAMILIA SU PATRIA TE HA TRAIDO NOTICIAS DE LA VUELTA DE TU PADREO HA LLEGADO CON EL UNICO PROPOSITO DE COBRAR ALGUNA DEUDA COMO SELEVANTO SE FUE TAN RAPIDAMENTE SIN AGUARDAR QUE LE CONOCIERAMOSDADO SU ASPECTO DEBE DE SER UN MISERABLE CONTESTOLE EL PRUDENTE TELEMACO EURIMACO YA SE ACABO LAESPERANZA DEL REGRESO DE MI PADRE DOY FE LAS NOTICIAS VENGANDE DONDE VINIEREN NI CURO DE LAS PREDICCIONES QUE HAGA UN ADIVINOA QUIEN MI MADRE LLAME E INTERROGUE EN EL PALACIO ESTE HUESPED MIOLO ERA YA DE MI PADRE VIENE DE TAFOS SE PRECIA DE SER MENTES HIJODEL BELICOSO ANQUIALO REINA SOBRE LOS TAFIOS AMANTES DE MANEJARLOS REMOSILUSTRACION VOLVIERON SOLAZARSE LOS PRETENDIENTES CON LA DANZA YEL CANTO CANTO VERSOS ASI HABLO TELEMACO AUNQUE EN SU MENTE HABIA RECONOCIDO LADIOSA INMORTAL VOLVIERON LOS PRETENDIENTES SOLAZARSE CON LADANZA EL DELEITOSO CANTO ASI ESPERABAN QUE LLEGASE LA OBSCURANOCHE SOBREVINO ESTA CUANDO AUN SE DIVERTIAN ENTONCES PARTIERONY SE ACOSTARON EN SUS CASAS TELEMACO SUBIO AL ELEVADO APOSENTO QUEPARA EL SE HABIA CONSTRUIDO DENTRO DEL HERMOSO PATIO EN UN LUGARVISIBLE POR TODAS PARTES SE FUE DERECHO LA CAMA MEDITANDO EN SUESPIRITU MUCHAS COSAS ACOMPANABALE CON TEAS ENCENDIDAS EN LA MANOEURICLEA HIJA DE OPS PISENORIDA LA DE CASTOS PENSAMIENTOS LACUAL COMPRARA LAERTES EN OTRA EPOCA APENAS LLEGADA LA PUBERTADPOR EL PRECIO DE VEINTE BUEYES EN EL PALACIO LA HONRO COMO UNACASTA ESPOSA PERO JAMAS SE ACOSTO CON ELLA FIN DE QUE SU MUJER NOSE IRRITASE AQUELLA PUES ALUMBRABA TELEMACO CON TEAS ENCENDIDASPOR SER LA ESCLAVA QUE MAS LE AMABA LA QUE LE HABIA CRIADO DESDENINO EN LLEGANDO ABRIO LA PUERTA DE LA HABITACION SOLIDAMENTECONSTRUIDA TELEMACO SE SENTO EN LA CAMA DESNUDOSE LA DELICADATUNICA DIOSELA EN LAS MANOS LA PRUDENTE ANCIANA LA CUAL DESPUESDE COMPONER LOS PLIEGUES LA COLGO DE UN CLAVO QUE HABIA JUNTO ALTORNEADO LECHO DE SEGUIDA SALIO DE LA ESTANCIA ENTORNO LA PUERTATIRANDO DEL ANILLO DE PLATA ECHO EL CERROJO POR MEDIO DE UNACORREA TELEMACO BIEN CUBIERTO DE UN VELLON DE OVEJA PENSO TODALA NOCHE EN EL VIAJE QUE MINERVA LE HABIA ACONSEJADOILUSTRACIONILUSTRACION LOS PRETENDIENTES SORPRENDEN PENELOPE CUANDO ESTADESTEJIENDO LA FINISIMA TELACANTO IIAGORA DE LOS ITACENSESPARTIDA DE TELEMACO BIEN SE DESCUBRIO LA HIJA DE LA MANANA LA AURORA DE ROSACEOSDEDOS EL CARO HIJO DE ULISES SE LEVANTO DE LA CAMA VISTIOSECOLGO DEL HOMBRO LA AGUDA ESPADA ATO SUS NITIDOS PIES HERMOSASSANDALIAS SEMEJANTE POR SU ASPECTO UNA DEIDAD SALIO DEL CUARTOEN SEGUIDA MANDO QUE LOS HERALDOS DE VOZ SONORA LLAMARAN AL AGORAA LOS AQUEOS DE LARGA CABELLERA HIZOSE EL PREGON EMPEZARON AREUNIRSE MUY PRESTAMENTE ASI QUE HUBIERON ACUDIDO ESTUVIERONCONGREGADOS TELEMACO SE FUE AL AGORA CON LA BRONCINEA LANZA ENLA MANO DOS PERROS DE AGILES PIES QUE LE SEGUIAN ADORNANDOLOMINERVA CON TAL GRACIA DIVINAL QUE AL VERLE LLEGAR TODO EL PUEBLO LECONTEMPLABA CON ASOMBRO SE SENTO EN LA SILLA DE SU PADRE PUES LEHICIERON LUGAR LOS ANCIANOS FUE EL PRIMERO EN ARENGARLES EL HEROE EGIPTIO QUE YA ESTABAENCORVADO DE VEJEZ SABIA MUCHISIMAS COSAS UN HIJO SUYO MUY AMADOEL BELICOSO ANTIFO HABIA IDO ILION LA DE HERMOSOS CORCELES ENLAS CONCAVAS NAVES DEL DIVINAL ULISES EL FEROZ CICLOPE LO MATOEN LA EXCAVADA GRUTA E HIZO DEL MISMO LA ULTIMA DE AQUELLAS CENASOTROS TRES TENIA EL ANCIANOUNO EURINOMO HALLABASE CON LOSPRETENDIENTES LOS DEMAS CUIDABAN LOS CAMPOS DE SU PADREMAS NOPOR ESO SE HABIA OLVIDADO DE ANTIFO POR EL LLORABA SE AFLIGIAEGIPTIO PUES LES ARENGO DERRAMANDO LAGRIMAS LES DIJO DE ESTASUERTE OID ITACENSES LO QUE OS VOY DECIR NI UNA SOLA VEZ FUECONVOCADA NUESTRA AGORA NI EN ELLA TUVIMOS SESION DESDE QUE ELDIVINAL ULISES PARTIO EN LAS CONCAVAS NAVES QUIEN AL PRESENTE NOSREUNE ES JOVEN ANCIANO AQUEL QUIEN LE APREMIA UNA NECESIDAD TANGRANDE RECIBIO ALGUNA NOTICIA DE QUE EL EJERCITO VUELVE DESEAMANIFESTARNOS PUBLICAMENTE LO QUE SUPO ANTES QUE OTROS QUIEREEXPONER DECIR ALGO QUE INTERESA AL PUEBLO PARECEME QUE DEBE DE SERUN VARON HONRADO PROFICUO CUMPLALE JUPITER LLEVANDOLO FELIZTERMINO LO QUE EN SU ESPIRITU REVUELVE ASI LES HABLO HOLGOSE DEL PRESAGIO EL DILECTO HIJO DE ULISESQUE YA PERMANECIO MUCHO TIEMPO SENTADO DESEOSO DE ARENGARLESSE LEVANTO EN MEDIO DEL AGORA EL HERALDO PISENOR QUE SABIADAR PRUDENTES CONSEJOS LE PUSO EL CETRO EN LA MANO TELEMACODIRIGIENDOSE PRIMERAMENTE AL VIEJO SE EXPRESO DE ESTA GUISA OH ANCIANO ESTA LEJOS ESE HOMBRE AHORA SABRAS QUE QUIEN HAREUNIDO EL PUEBLO SOY YO QUE HALLO SUMAMENTE AFLIGIDO NINGUNANOTICIA RECIBI DE LA VUELTA DEL EJERCITO PARA QUE PUEDA MANIFESTAROSPUBLICAMENTE LO QUE HAYA SABIDO ANTES QUE OTROS TAMPOCO QUIEROEXPONER NI DECIR COSA ALGUNA QUE INTERESE AL PUEBLO TRATASE DE UNASUNTO PARTICULAR MIO DE LA DOBLE CUITA QUE SE ENTRO POR MI CASALA UNA ES QUE PERDI MI EXCELENTE PROGENITOR EL CUAL REINABA SOBREVOSOTROS CON LA SUAVIDAD DE UN PADRE LA OTRA LA ACTUAL DE MASIMPORTANCIA TODAVIA PRONTO DESTRUIRA MI CASA ACABARA CON TODAMI HACIENDA LOS PRETENDIENTES DE MI MADRE HIJOS QUERIDOS DE LOSVARONES MAS SENALADOS DE ESTE PAIS LA ASEDIAN PESAR SUYO SEATREVEN ENCAMINARSE LA CASA DE ICARIO SU PADRE PARA QUE LADOTE LA ENTREGUE AL QUE EL QUIERA ELLA LE PLAZCA SINO QUEVINIENDO TODOS LOS DIAS NUESTRA MORADA NOS DEGUELLAN LOS BUEYESLAS OVEJAS LAS PINGUES CABRAS CELEBRAN BANQUETES BEBEN LOCAMENTEEL VINO TINTO ASI SE CONSUMEN MUCHAS COSAS PORQUE TENEMOS UNHOMBRE COMO ULISES QUE FUERA CAPAZ DE LIBRAR NUESTRA CASA DETAL RUINA ENCUENTRO YO EN DISPOSICION DE REALIZARLOSINDUDA DE SER DEBIL HA DE FALTARME EL VALOR MARCIALQUE YAARROJARIA ESTA CALAMIDAD SI TUVIERA BRIOS SUFICIENTES PORQUE SEHAN COMETIDO ACCIONES INTOLERABLES MI CASA SE PIERDE DE LA PEORMANERA PARTICIPAD VOSOTROS DE MI INDIGNACION SENTID VERGUENZAANTE LOS VECINOS CIRCUNSTANTES TEMED QUE OS PERSIGA LA COLERA DELOS DIOSES IRRITADOS POR LAS MALAS OBRAS OS LO RUEGO POR JUPITEROLIMPICO POR TEMIS LA CUAL DISUELVE REUNE LAS AGORAS DE LOSHOMBRES PROSIGAIS AMIGOS DEJAD QUE PADEZCA SOLAS LA TRISTEPENA SER QUE MI PADRE EL EXCELENTE ULISES HAYA QUERIDO MAL YCAUSADO DANO LOS AQUEOS DE HERMOSAS GREBAS VOSOTROS AHORA PARAVENGAROS EN MI QUERAIS MAL CAUSEIS DANO INCITANDO ESTOSMEJOR FUERA QUE TODOS JUNTOS DEVORARAIS MIS INMUEBLES MIS REBANOSQUE SI TAL HICIERAIS QUIZAS ALGUN DIA SE PAGARAN PUES IRIA POR LACIUDAD RECONVINIENDOOS CON PALABRAS RECLAMANDOOS LOS BIENES HASTAQUE TODOS FUESEN DEVUELTOS MAS AHORA LAS PENAS QUE MI CORAZONINFERIS SON INCURABLES ASI DIJO ENCOLERIZADO REZUMANDOLE LAS LAGRIMAS ARROJO ELCETRO EN TIERRA MOVIOSE PIEDAD EL PUEBLO TODOS CALLARON SINQUE NADIE SE ATREVIESE CONTESTAR TELEMACO CON ASPERAS PALABRASSALVO ANTINOO QUE RESPONDIO DICIENDO TELEMACO ALTILOCUO INCAPAZ DE MODERAR TUS IMPETUS QUE HASDICHO PARA ULTRAJARNOS TU DESEAS CUBRIRNOS DE BALDON MAS LA CULPANO LA TIENEN LOS AQUEOS QUE PRETENDEN TU MADRE SINO ELLA QUESABE PROCEDER CON GRAN ASTUCIA TRES ANOS VAN CON ESTE PRONTOLLEGARA EL CUARTO QUE SE FISGA DEL ANIMO QUE LOS AQUIVOS TIENENEN SU PECHO TODOS LES DA ESPERANZAS CADA UNO EN PARTICULARLE HACE PROMESAS LE ENVIA MENSAJES PERO SON MUY DIFERENTES LOSPENSAMIENTOS QUE EN SU INTELIGENCIA REVUELVE AUN DISCURRIO SUESPIRITU ESTE OTRO ENGANO SE PUSO TEJER EN EL PALACIO UNA GRANTELA SUTIL E INTERMINABLE LA HORA NOS HABLO DE ESTA GUISAJOVENES PRETENDIENTES MIOS YA QUE HA MUERTO EL DIVINAL ULISESAGUARDAD PARA INSTAR MIS BODAS QUE ACABE ESTE LIENZONO SEA QUESE PIERDAN INUTILMENTE LOS HILOSA FIN DE QUE TENGA SUDARIO ELHEROE LAERTES EN EL MOMENTO FATAL DE LA ATERRADORA MUERTE SEME VAYA INDIGNAR ALGUNA DE LAS AQUEAS DEL PUEBLO SI ENTERRARSIN MORTAJA UN HOMBRE QUE HA POSEIDO TANTOS BIENES ASI DIJOY NUESTRO ANIMO GENEROSO SE DEJO PERSUADIR DESDE AQUEL INSTANTEPASABA EL DIA LABRANDO LA GRAN TELA POR LA NOCHE TAN LUEGOCOMO SE ALUMBRABA CON LAS ANTORCHAS DESHACIA LO TEJIDO DE ESTASUERTE LOGRO OCULTAR EL ENGANO QUE SUS PALABRAS FUERAN CREIDASPOR LOS AQUEOS DURANTE UN TRIENIO MAS ASI QUE VINO EL CUARTOANO VOLVIERON SUCEDERSE LAS ESTACIONES NOS LO REVELO UNA DELAS MUJERES QUE CONOCIA MUY BIEN LO QUE PASABA SORPRENDIMOSA PENELOPE DESTEJIENDO LA ESPLENDIDA TELA ASI FUE COMO MAL DESU GRADO SE VIO EN LA NECESIDAD DE ACABARLA OYE PUES LO QUETE RESPONDEN LOS PRETENDIENTES PARA QUE LO SEPA TU ESPIRITU LOSEPAN TAMBIEN LOS AQUEOS TODOS HAZ QUE TU MADRE VUELVA SU CASA YORDENALE QUE TOME POR ESPOSO QUIEN SU PADRE LE ACONSEJE ELLALE PLAZCA SI ATORMENTARE LARGO TIEMPO LOS AQUEOS CONFIANDOEN LAS DOTES QUE MINERVA LE OTORGO EN TAL ABUNDANCIASER DIESTRAEN LABORES PRIMOROSAS GOZAR DE BUEN JUICIO VALERSE DE ASTUCIASQUE JAMAS HEMOS OIDO DECIR QUE CONOCIERAN LAS ANTERIORES AQUIVASTIRO ALCMENA MICENE LA DE HERMOSA DIADEMA PUES NINGUNA CONCIBIOPENSAMIENTOS SEMEJANTES LOS DE PENELOPENO SE HABRA DECIDIDO PORLO MAS CONVENIENTE YA QUE TUS BIENES RIQUEZAS SERAN DEVORADOSMIENTRAS SIGA CON EL PROPOSITO QUE LOS DIOSES LE INFUNDIERON EN ELPECHO ELLA GANARA CIERTAMENTE MUCHA FAMA PERO TI TE QUEDARA TANSOLO LA ANORANZA DE LOS COPIOSOS BIENES QUE HAYAS POSEIDO NOSOTROSNI TORNAREMOS NUESTROS NEGOCIOS NI NOS LLEGAREMOS OTRA PARTEHASTA QUE PENELOPE SE HAYA CASADO CON ALGUNO DE LOS AQUEOS CONTESTOLE EL PRUDENTE TELEMACO ANTINOO ES RAZON QUEECHE DE MI CASA CONTRA SU VOLUNTAD LA QUE DIO EL SER HACRIADO MI PADRE QUIZAS ESTE VIVO EN OTRA TIERRA QUIZAS HAYA MUERTOPERO SERA GRAVOSO HABER DE RESTITUIR ICARIO MUCHISIMAS COSASSI VOLUNTARIAMENTE LE ENVIO MI MADRE ENTONCES SOLO PADECEREINFORTUNIOS CAUSA DE LA AUSENCIA DE MI PADRE SINO QUE LOS DIOSESME CAUSARAN OTROS PUES MI MADRE AL SALIR DE LA CASA IMPRECARALAS ODIOSAS FURIAS CAERA SOBRE MI LA INDIGNACION DE LOS HOMBRESJAMAS POR CONSIGUIENTE DARE YO SEMEJANTE ORDEN SI OS INDIGNA ELANIMO LO QUE OCURRE SALID DEL PALACIO DISPONED OTROS FESTINES YCOMEOS VUESTROS BIENES CONVIDANDOOS SUCESIVA RECIPROCAMENTE ENVUESTRAS CASAS PERO SI OS PARECE MEJOR MAS ACERTADO DESTRUIRIMPUNEMENTE LOS BIENES DE UN SOLO HOMBRE SEGUID CONSUMIENDOLOS QUEYO INVOCARE LOS SEMPITERNOS DIOSES POR SI ALGUN DIA NOS CONCEDEJUPITER QUE VUESTRAS OBRAS SEAN CASTIGADAS QUIZAS MURAIS EN ESTEPALACIO SIN QUE NADIE OS VENGUE ASI HABLO TELEMACO EL LONGIVIDENTE JUPITER ENVIOLE DOS AGUILASQUE ECHARON VOLAR DESDE LA CUMBRE DE UN MONTE AMBAS VOLABAN MUYJUNTAS CON LAS ALAS EXTENDIDAS TAN RAPIDAS COMO EL VIENTO YAL HALLARSE EN MEDIO DE LA RUIDOSA AGORA GIRARON VELOZMENTEBATIENDO LAS TUPIDAS ALAS MIRARONLES TODOS LA CABEZA COMOPRESAGIO DE MUERTE DESGARRARONSE CON LAS UNAS LA CABEZA ELCUELLO SE LANZARON HACIA LA DERECHA POR CIMA DE LAS CASAS ATRAVES DE LA CIUDAD QUEDARONSE TODOS LOS PRESENTES MUY ADMIRADOSDE VER CON SUS PROPIOS OJOS LAS SUSODICHAS AVES MEDITABAN EN SUESPIRITU QUE FUERA LO QUE TENIA QUE SUCEDER CUANDO EL ANCIANO HEROEHALITERSES MASTORIDA EL UNICO QUE SE SENALABA SOBRE LOS DE SU EDADEN CONOCER LOS AUGURIOS EXPLICAR LAS COSAS FATALES LES ARENGO CONBENEVOLENCIA DICIENDO OID ITACENSES LO QUE OS VOY DECIR AUNQUE DE REFERIRMEDE UN MODO ESPECIAL LOS PRETENDIENTES GRANDE ES EL INFORTUNIO QUEA ESTOS LES AMENAZA PORQUE ULISES ESTARA MUCHO TIEMPO ALEJADO DELOS SUYOS SINO QUE YA QUIZAS SE HALLA CERCA LES APAREJA TODOSLA MUERTE EL DESTINO TAMBIEN LES HA DE VENIR DANO MUCHOSDE LOS QUE MORAN EN ITACA QUE SE DE LEJOS ANTES DE QUE ASIOCURRA PENSEMOS COMO LES HARIAMOS CESAR DE SUS DEMASIAS CESENESPONTANEAMENTE QUE FUERA LO MAS PROVECHOSO PARA ELLOS MISMOSPUES LO VATICINO SIN SABERLO SINO MUY ENTERADO OS ASEGUROQUE AL HEROE SE LE HA CUMPLIDO TODO LO QUE YO LE DECLARARA CUANDOLOS ARGIVOS SE EMBARCARON PARA ILION FUESE CON ELLOS EL INGENIOSOULISES DIJELE ENTONCES QUE DESPUES DE PASAR MUCHOS MALES DEPERDER SUS COMPANEROS TORNARIA SU PATRIA EN EL VIGESIMO ANO SINQUE NADIE LE CONOCIERA AHORA TODO SE VA CUMPLIENDO RESPONDIOLE EURIMACO HIJO DE POLIBO OH ANCIANO VUELVE ATU CASA ADIVINALES TUS HIJOS LO QUE QUIERAS FIN DE QUE ENLO POR VENIR PADEZCAN NINGUN DANO MAS EN ESTAS COSAS SE YOVATICINAR HARTO MEJOR QUE TU MISMO MUCHAS AVES SE MUEVEN DEBAJO DELOS RAYOS DEL SOL PERO TODAS SON AGORERAS ULISES MURIO LEJOS DENOSOTROS TU DEBIERAS HABER PERECIDO CON EL ASI DIRIAS TANTOSVATICINIOS NI INCITARIAS AL IRRITADO TELEMACO ESPERANDO QUE MANDEALGUN PRESENTE TU CASA LO QUE AHORA VOY DECIR SE CUMPLIRA SITU QUE CONOCES MUCHAS COSAS ANTIQUISIMAS ENGANARES CON TUS PALABRASA ESE HOMBRE MAS MOZO LE INCITARES QUE PERMANEZCA AIRADOPRIMERAMENTE SERA MAYOR SU AFLICCION PUES POR LAS PREDICCIONESLE SERA DABLE PROCEDER DE OTRA SUERTE TI OH ANCIANO TEIMPONDREMOS UNA MULTA PARA QUE TE DUELA EL PAGARLA TE CAUSE GRAVEPESAR YO MISMO DELANTE DE TODOS VOSOTROS DARE TELEMACO UNCONSEJO ORDENE SU MADRE QUE TORNE LA CASA PATERNA ALLI LEDISPONDRAN LAS NUPCIAS LE APAREJARAN UNA DOTE TAN CUANTIOSA COMODEBE LLEVAR UNA HIJA AMADA CREO QUE HASTA ENTONCES DESISTAMOSLOS JOVENES AQUIVOS DE NUESTRA LABORIOSA PRETENSION PORQUE NOTEMEMOS ABSOLUTAMENTE NADIE NI SIQUIERA TELEMACO PESAR DE SUFACUNDIA NI NOS CURAMOS DE LA VANA PROFECIA QUE NOS HACES PORLA CUAL DE SERNOS AUN MAS ODIOSO SUS BIENES SERAN DEVORADOSDE LA PEOR MANERA COMO HASTA AQUI SIN QUE JAMAS SE LE INDEMNICEEN CUANTO PENELOPE ENTRETENGA LOS AQUEOS CON DIFERIR LA BODA YNOSOTROS ESPERANDO DIA TRAS DIA COMPETIREMOS UNOS CON OTROS POR SUSEXIMIAS PRENDAS NOS DIRIGIREMOS OTRAS MUJERES QUE NOS PUDIERANCONVENIR PARA CASARNOS CONTESTOLE EL PRUDENTE TELEMACO EURIMACO CUANTOS SOISILUSTRES PRETENDIENTES OS DE SUPLICAR NI ARENGAR MAS ACERCADE ESTO PORQUE AHORA YA ESTAN ENTERADOS LOS DIOSES LOS AQUEOSTODOS MAS EA PROPORCIONADME UNA EMBARCACION MUY VELERA VEINTECOMPANEROS QUE ABRAN CAMINO ACA ALLA DEL PONTO IRE ESPARTAY LA ARENOSA PILOS PREGUNTAR POR EL REGRESO DE MI PADRE CUYAAUSENCIA SE HACE YA TAN LARGA QUIZAS ALGUN MORTAL HABLARA DELMISMO LLEGARA MIS OIDOS LA FAMA QUE PROCEDE DE JUPITER ES LAQUE MAS DIFUNDE LA GLORIA DE LOS HOMBRES SI OYERE DECIR QUE MIPADRE VIVE HA DE VOLVER LO SUFRIRE TODO UN ANO MAS AUNQUE ESTOYAFLIGIDO PERO SI PARTICIPAREN QUE HA MUERTO YA EXISTERETORNARE SIN DILACION LA PATRIA LE ERIGIRE UN TUMULO LE HARE LASMUCHAS EXEQUIAS QUE SE LE DEBEN MI MADRE LE BUSCARE UN ESPOSO CUANDO ASI HUBO HABLADO TOMO ASIENTO ENTONCES LEVANTOSEMENTOR EL AMIGO DEL PRECLARO ULISESESTE AL EMBARCARSE LE HABIAENCOMENDADO SU CASA ENTERA PARA QUE LOS SUYOS OBEDECIESEN AL ANCIANOY EL SE LO GUARDARA TODO LO MANTUVIESE EN PIEY BENEVOLO LESARENGO DEL SIGUIENTE MODO OID ITACENSES LO QUE OS VOY DECIR NINGUN REY QUE EMPUNECETRO SEA BENIGNO NI BLANDO NI SUAVE NI OCUPE LA MENTE EN COSASJUSTAS ANTES AL CONTRARIO OBRE SIEMPRE CON CRUELDAD LLEVE ALCABO ACCIONES NEFANDAS YA QUE NADIE SE ACUERDA DEL DIVINAL ULISESENTRE LOS CIUDADANOS SOBRE LOS CUALES REINABA CON LA SUAVIDAD DE UNPADRE ABORREZCO TANTO LOS ORGULLOSOS PRETENDIENTES POR LAVIOLENCIA CON QUE PROCEDEN LLEVADOS DE SUS MALOS PROPOSITOSPUESSI DEVORAN LA CASA DE ULISES PONEN VENTURA SUS CABEZAS CREENQUE EL HEROE YA HA DE VOLVERCOMO INDIGNO CONTRA LA RESTANTEPOBLACION AL CONTEMPLAR QUE PERMANECEIS SENTADOS EN SILENCIOSIN QUE INTENTEIS SIN EMBARGO DE SER TANTOS REFRENAR CON VUESTRASPALABRAS LOS PRETENDIENTES QUE SON POCOS RESPONDIOLE LEOCRITO EVENORIDA MENTOR PERVERSO E INSENSATOQUE DIJISTE INCITARLES QUE NOS HAGAN DESISTIR DIFICULTOSO LESSERIA HASTA UN NUMERO MAYOR DE HOMBRES LUCHAR CON NOSOTROSPARA PRIVARNOS DE LOS BANQUETES PUES SI EL MISMO ULISES DE ITACAVINIENDO EN PERSONA ENCONTRASE LOS ILUSTRES PRETENDIENTES COMIENDOEN EL PALACIO RESOLVIERA EN SU CORAZON ECHARLOS DE SU CASA SEALEGRARIA SU ESPOSA DE QUE HUBIESE VUELTO AUNQUE MUCHO LO DESEAPORQUE ALLI MISMO RECIBIRIA EL HEROE INDIGNA MUERTE SI OSABA COMBATIRCON TANTOS VARONES EN VERDAD QUE HABLADO COMO DEBIAS MASEA SEPARAOS VOLVED VUESTRAS OCUPACIONES MENTOR HALITERSESQUE SIEMPRE HAN SIDO AMIGOS DE TELEMACO POR SU PADRE LE ANIMARANPARA QUE EMPRENDA EL VIAJE PERO SE FIGURA QUE PERMANECIENDOQUIETO DURANTE MUCHO TIEMPO OIRA EN ITACA LAS NOTICIAS QUE VENGAN YJAMAS REALIZARA SU PROPOSITO ASI DIJO AL PUNTO DISOLVIO EL AGORA DISPERSARONSE TODOS PARAVOLVER SUS RESPECTIVAS CASAS LOS PRETENDIENTES ENDEREZARON SUCAMINO LA MORADA DEL DIVINAL ULISES TELEMACO SE ALEJO HACIA LA PLAYA DESPUES DE LAVARSE LAS MANOSEN EL ESPUMOSO MAR ORO MINERVA DICIENDO OYEME OH NUMEN QUE AYER VINISTE MI CASA ORDENASTE QUEFUESE EN UNA NAVE POR EL OBSCURO PONTO EN BUSCA DE NOTICIAS DELREGRESO DE MI PADRE CUYA AUSENCIA SE HACE YA TAN LARGA TODOSE OPONEN LOS AQUEOS EN ESPECIAL LOS EN MAL HORA ENSOBERBECIDOSPRETENDIENTES TAL FUE SU PLEGARIA ACERCOSELE MINERVA QUE HABIA TOMADO ELASPECTO LA VOZ DE MENTOR LE DIJO ESTAS ALADAS PALABRAS TELEMACO SERAS EN LO SUCESIVO NI COBARDE NI IMPRUDENTESI HEREDADO EL BUEN ANIMO QUE TU PADRE TENIA PARA LLEVAR SUTERMINO ACCIONES PALABRAS SI ASI FUERE EL VIAJE TE RESULTARAVANO NI QUEDARA POR HACER MAS SI ERES EL HIJO DE AQUEL DEPENELOPE CREO QUE LLEGUES REALIZAR LO QUE ANHELAS CONTADOS SONLOS HIJOS QUE SE ASEMEJAN SUS PADRES LOS MAS SALEN PEORES TANSOLAMENTE ALGUNOS LOS AVENTAJAN PERO TU COMO SERAS EN LO FUTURONI COBARDE NI IMPRUDENTE NI TE FALTA DEL TODO LA INTELIGENCIA DEULISES PUEDES CONCEBIR LA ESPERANZA DE DAR FIN TALES OBRAS NOTE PREOCUPES PUES POR LO QUE RESUELVAN MEDITEN LOS INSENSATOSPRETENDIENTES QUE ESTOS NI TIENEN CORDURA NI PRACTICAN LA JUSTICIAY SABEN QUE SE LES ACERCA LA MUERTE EL NEGRO HADO PARA QUETODOS ACABEN EN UN MISMO DIA ESE VIAJE QUE DESEAS EMPRENDER NOSE DIFERIRA LARGO TIEMPO SOY TAN AMIGO TUYO POR TU PADRE QUEAPAREJARE UNA VELERA NAVE IRE CONTIGO VUELVE TU CASAMEZCLATE CON LOS PRETENDIENTES ORDENA QUE SE DISPONGAN PROVISIONESEN LAS OPORTUNAS VASIJAS ECHANDO EL VINO EN ANFORAS LA HARINA QUEES LA SUSTENTACION DE LOS HOMBRES EN FUERTES PELLEJOS MIENTRASTANTO JUNTARE RECORRIENDO LA POBLACION LOS QUE VOLUNTARIAMENTEQUIERAN ACOMPANARTE MUCHAS NAVES HAY ENTRE NUEVAS VIEJAS ENITACA RODEADA POR EL MAR DESPUES DE OJEARLAS ELEGIRE PARA TI LAQUE SEA MEJOR LUEGO QUE ESTE EQUIPADA LA BOTAREMOS AL ANCHUROSOPONTO ASI HABLO MINERVA HIJA DE JUPITER TELEMACO DEMORO MUCHOTIEMPO DESPUES QUE HUBO ESCUCHADO LA VOZ DE LA DEIDAD FUESE SUCASA CON EL CORAZON AFLIGIDO HALLO LOS SOBERBIOS PRETENDIENTESQUE DESOLLABAN CABRAS ASABAN PUERCOS CEBONES EN EL RECINTO DELPATIO ENTONCES ANTINOO RIENDOSE SALIO AL ENCUENTRO DE TELEMACO LETOMO LA MANO LE DIJO ESTAS PALABRAS TELEMACO ALTILOCUO INCAPAZ DE MODERAR TUS IMPETUS NOREVUELVAS EN TU PECHO MALAS ACCIONES PALABRAS COME BEBECONMIGO COMO HASTA AQUI LO HICISTE LOS AQUEOS TE PREPARARAN TODASAQUELLAS COSAS UNA NAVE REMEROS ESCOGIDOS PARA QUE MUY PRONTOVAYAS LA DIVINA PILOS EN BUSCA DE NUEVAS DE TU ILUSTRE PADRE REPLICOLE EL PRUDENTE TELEMACO ANTINOO ES POSIBLE QUEYO PERMANEZCA CALLADO ENTRE VOSOTROS TAN SOBERBIOS COMA MEREGOCIJE TRANQUILAMENTE ACASO BASTA QUE LOS PRETENDIENTES MEHAYAIS DESTRUIDO MUCHAS EXCELENTES COSAS MIENTRAS FUI MUCHACHOAHORA QUE SOY HOMBRE SE LO QUE OCURRE ESCUCHANDO LO QUE LOS DEMASDICEN CRECE EN MI PECHO EL ANIMO INTENTARE DAROS MALAS MUERTESSEA ACUDIENDO PILOS SEA AQUI EN ESTA POBLACION PASAJERO IREYNO SERA INFRUCTUOSO EL VIAJE DE QUE HABLOPUES TENGO NAVE NIREMADORES QUE SIN DUDA OS PARECIO MAS CONVENIENTE QUE ASI FUERA DIJO DESASIO SU MANO DE LA DE ANTINOO LOS PRETENDIENTESQUE ANDABAN PREPARANDO EL BANQUETE DENTRO DE LA CASA SE MOFABANDE TELEMACO LE ZAHERIAN CON PALABRAS UNO DE AQUELLOS JOVENESSOBERBIOS HABLO DE ESTA MANERA SIN DUDA PIENSA TELEMACO COMO DARNOS MUERTE TRAERA VALEDORES DELA ARENOSA PILOS DE ESPARTA TAN VEHEMENTE ES SU DESEO QUIZASSE PROPONGA IR LA FERTIL TIERRA DE EFIRA PARA LLEVARSE DROGASMORTIFERAS ECHARLAS LUEGO EN LA CRATERA FIN DE ACABAR CON TODOSNOSOTROS OTRO DE LOS JOVENES SOBERBIOS REPUSO ACTO CONTINUO QUIENSABE SI DESPUES DE PARTIR EN EL CONCAVO BAJEL MORIRA LEJOS DE LOSSUYOS VAGANDO COMO ULISES MAYOR FUERA ENTONCES NUESTRO TRABAJO PUESREPARTIRIAMOS TODOS SUS BIENES DARIAMOS ESTA CASA SU MADRE AQUIEN LA DESPOSARA PARA QUE EN COMUN LA POSEYESEN ASI DECIAN TELEMACO BAJO LA ANCHUROSA ELEVADA CAMARA DE SUPADRE DONDE HABIA MONTONES DE ORO DE BRONCE VESTIDURAS GUARDADASEN ARCAS GRAN COPIA DE ODORIFERO ACEITE ALLI ESTABAN LAS TINAJASDEL DULCE VINO ANEJO REPLETAS DE BEBIDA PURA DIVINAL ARRIMADASORDENADAMENTE LA PARED POR SI ALGUN DIA VOLVIERE ULISES SU CASADESPUES DE HABER PADECIDO MULTITUD DE PESARES LA PUERTA TENIA DOSHOJAS SOLIDAMENTE ADAPTADAS SUJETAS POR LA CERRADURA JUNTO AELLA HALLABASE DE DIA DE NOCHE CUSTODIANDOLO TODO CON PRECAVIDAMENTE UNA DESPENSERA EURICLEA HIJA DE OPS PISENORIDA ENTONCESTELEMACO LA LLAMO LA ESTANCIA LE DIJO AMA VAMOS PONME EN ANFORAS DULCE VINO EL QUE SEA MAS SUAVEDESPUES DEL QUE GUARDAS PARA AQUEL INFELIZ ESPERANDO SIEMPRE QUETORNE ULISES DE JOVIAL LINAJE POR HABERSE LIBRADO DE LA MUERTE YDEL DESTINO LLENA DOCE ANFORAS CIERRALAS CON SUS TAPADERAS APARTATAMBIEN VEINTE MEDIDAS DE HARINA DE TRIGO ECHALAS EN PELLEJOS BIENCOSIDOS TU SOLA LO SEPAS ESTE TODO APAREJADO JUNTO PUES VENDREA TOMARLO AL ANOCHECER ASI QUE MI MADRE SE VAYA ARRIBA RECOGERSEQUE QUIERO HACER UN VIAJE ESPARTA LA ARENOSA PILOS POR SILOGRO AVERIGUAR U OIR ALGO DEL REGRESO DE MI PADRE ASI HABLO ECHOSE LLORAR SU AMA EURICLEA SUSPIRANDO DIJOLEESTAS ALADAS PALABRAS HIJO AMADO COMO TE HA VENIDO LAS MIENTES TAL PROPOSITOADONDE QUIERES IR POR APARTADAS TIERRAS SIENDO UNIGENITO TANQUERIDO ULISES EL DE JOVIAL LINAJE MURIO LEJOS DE LA PATRIA EN UNPUEBLO IGNOTO ASI QUE PARTAS ESTOS MAQUINARAN COSAS INICUAS PARAMATARTE CON ALGUN ENGANO REPARTIRSE DESPUES TODO LO TUYO QUEDATEAQUI CERCA DE TUS BIENES QUE NADA TE OBLIGA PADECER INFORTUNIOSYENDO POR EL ESTERIL PONTO NI VAGAR DE UNA PARTE OTRA CONTESTOLE EL PRUDENTE TELEMACO TRANQUILIZATE AMA QUE ESTARESOLUCION SE HA TOMADO SIN QUE UN DIOS LO QUIERA PERO JURAME QUENADA DIRAS MI MADRE HASTA QUE TRANSCURRAN DOCE DIAS HASTAQUE LA AQUEJE EL DESEO DE VERME U OIGA DECIR QUE PARTIDO PARAEVITAR QUE LLORE DANE ASI SU HERMOSO CUERPO TAL DIJO LA ANCIANA PRESTO EL SOLEMNE JURAMENTO DE LOS DIOSESEN ACABANDO DE JURAR ELLA SIN PERDER UN INSTANTE ENVASO EL VINOEN ANFORAS ECHO LA HARINA EN PELLEJOS BIEN COSIDOS TELEMACOVOLVIO SUBIR SE JUNTO CON LOS PRETENDIENTES ENTONCES MINERVA LA DEIDAD DE LOS BRILLANTES OJOS ORDENO OTRACOSA TOMO LA FIGURA DE TELEMACO RECORRIO LA CIUDAD HABLO CONDISTINTOS VARONES LES ENCARGO QUE AL ANOCHECER SE REUNIERAN JUNTOAL BARCO PIDIO TAMBIEN UNA VELERA NAVE AL HIJO PRECLARO DE FRONIO ANOEMON ESTE SE LA CEDIO GUSTOSO PUSOSE EL SOL LAS TINIEBLAS OCUPARON TODOS LOS CAMINOS ENAQUEL INSTANTE LA DIOSA ECHO AL MAR LA LIGERA EMBARCACION COLOCOEN LA MISMA CUANTOS APAREJOS LLEVAN LAS NAVES DE MUCHOS BANCOSCONDUJOLA DESPUES UNA EXTREMIDAD DEL PUERTO JUNTARONSE MUCHOS YEXCELENTES COMPANEROS MINERVA LOS ALENTO TODOS ENTONCES MINERVA LA DEIDAD DE LOS BRILLANTES OJOS ORDENOOTRA COSA FUESE AL PALACIO DEL DIVINAL ULISES INFUNDIOLES LOSPRETENDIENTES DULCE SUENO LES ENTORPECIO LA MENTE EN TANTO QUEBEBIAN E HIZO QUE LAS COPAS LES CAYERAN DE LAS MANOS TODOS SEAPRESURARON IRSE POR LA CIUDAD ACOSTARSE PUES ESTUVIERONMUCHO TIEMPO SENTADOS DESDE QUE EL SUENO LES CAYO SOBRE LOS PARPADOSY MINERVA LA DE LOS BRILLANTES OJOS QUE HABIA TOMADO LA FIGURA LAVOZ DE MENTOR DIJO TELEMACO DESPUES DE LLAMARLE AFUERA DEL COMODOPALACIO TELEMACO TUS COMPANEROS DE HERMOSAS GREBAS YA SE HAN SENTADOEN LOS BANCOS PARA REMAR SOLO ESPERAN TUS ORDENES VAMONOS NOTARDEMOS EN COMENZAR EL VIAJE CUANDO ASI HUBO HABLADO PALAS MINERVA ECHO ANDARACELERADAMENTE TELEMACO FUE SIGUIENDO LAS PISADAS DE LA DIOSALLEGARON LA NAVE AL MAR HALLARON EN LA ORILLA LOS COMPANEROSDE LARGA CABELLERA EL ESFORZADO DIVINAL TELEMACO LES HABLODICIENDO VENID AMIGOS TRAIGAMOS LOS VIVERES QUE YA ESTAN DISPUESTOSY APARTADOS EN EL PALACIO MI MADRE NADA SABE NI LAS CRIADASTAMPOCO EXCEPCION DE UNA QUE ES LA UNICA PERSONA QUIEN SE LO HEDICHOILUSTRACION ACOMODARONSE EN LA POPA MINERVA TELEMACO LOSMARINEROS SOLTARON LAS AMARRAS EL NAVIO ECHO ANDAR AL SOPLO DELCEFIRO CANTO II VERSOS CUANDO ASI HUBO HABLADO SE PUSO EN CAMINO LOS DEMAS LESIGUIERON EN SEGUIDA SE LO LLEVARON TODO LO CARGARON EN LA NAVEDE MUCHOS BANCOS COMO EL AMADO HIJO DE ULISES LO ORDENARA ACTOCONTINUO EMBARCOSE TELEMACO PRECEDIDO POR MINERVA QUE TOMO ASIENTOEN LA POPA EL SU LADO MIENTRAS LOS COMPANEROS QUITABAN LASAMARRAS SE ACOMODABAN EN LOS BANCOS MINERVA LA DE LOS BRILLANTESOJOS ENVIOLES PROSPERO VIENTO EL FUERTE CEFIRO QUE RESONABA POREL VINOSO PONTO TELEMACO EXHORTO SUS COMPANEROS MANDANDOLESQUE APAREJASEN LA JARCIA SU AMONESTACION FUE ATENDIDA IZARON ELMASTIL DE ABETO LO METIERON EN EL TRAVESANO LO ATARON CON SOGASY AL INSTANTE DESCOGIERON LA BLANCA VELA CON CORREAS BIEN TORCIDASHINCHIO EL VIENTO LA VELA LAS PURPUREAS OLAS RESONABAN EN TORNODE LA QUILLA MIENTRAS LA NAVE CORRIA SIGUIENDO SU RUMBO ASI QUEHUBIERON ATADO LOS APAREJOS LA VELOZ NAVE NEGRA LEVANTARONCRATERAS REBOSANTES DE VINO E HICIERON LIBACIONES LOS SEMPITERNOSINMORTALES DIOSES ESPECIALMENTE LA HIJA DE JUPITER LA DE LOSBRILLANTES OJOS LA NAVE CONTINUO SU RUMBO TODA LA NOCHE LASIGUIENTE AURORAILUSTRACIONILUSTRACION NESTOR HA RECONOCIDO MINERVA AL PARTIR ESTA DIOSAY LE OFRECE UN SACRIFICIOCANTO IIILO DE PILOS YA EL SOL DESAMPARABA EL HERMOSISIMO LAGO SUBIENDO AL BRONCINEOCIELO PARA ALUMBRAR LOS INMORTALES DIOSES LOS MORTALES HOMBRESSOBRE LA FERTIL TIERRA CUANDO TELEMACO LOS SUYOS LLEGARON PILOSLA BIEN CONSTRUIDA CIUDAD DE NELEO HALLARON EN LA ORILLA DEL MARA LOS HABITANTES QUE INMOLABAN TOROS DE NEGRO PELAJE AL QUE SACUDELA TIERRA AL DIOS DE CERULEA CABELLERA NUEVE ASIENTOS HABIA ENCADA UNO ESTABAN SENTADOS QUINIENTOS HOMBRES SE SACRIFICABAN NUEVETOROS MIENTRAS LOS PILIOS QUEMABAN LOS MUSLOS PARA EL DIOS DESPUESDE PROBAR LAS ENTRANAS LOS DE ITACA TOMARON PUERTO AMAINARON LASVELAS DE LA BIEN PROPORCIONADA NAVE ANCLARONLA SALTARON EN TIERRATELEMACO DESEMBARCO PRECEDIDO POR MINERVA LA DEIDAD DE LOSBRILLANTES OJOS ROMPIO EL SILENCIO CON ESTAS PALABRAS TELEMACO YA TE CUMPLE MOSTRAR VERGUENZA EN COSA ALGUNAHABIENDO ATRAVESADO EL PONTO CON EL FIN DE SABER NOTICIAS DE TUPADRE CUAL TIERRA LO TIENE OCULTO QUE SUERTE LE HA CABIDO EA VEDIRECTAMENTE NESTOR DOMADOR DE CABALLOS SEPAMOS QUE GUARDA ALLAEN SU PECHO RUEGALE TU MISMO QUE SEA VERAZ MENTIRA PORQUE ESMUY SENSATO REPUSO EL PRUDENTE TELEMACO MENTOR COMO QUIERES QUE YO MEACERQUE EL COMO PUEDO IR SALUDARLE AUN SOY PRACTICO ENHABLAR CON DISCRECION DA VERGUENZA QUE UN JOVEN INTERROGUE UNANCIANO DIJOLE MINERVA LA DEIDAD DE LOS BRILLANTES OJOS TELEMACODISCURRIRAS EN TU MENTE ALGUNAS COSAS UN NUMEN TE SUGERIRA LASRESTANTES PUES CREO QUE TU NACIMIENTO TU CRIANZA SE HAYANEFECTUADO CONTRA LA VOLUNTAD DE LOS DIOSES CUANDO ASI HUBO HABLADO PALAS MINERVA CAMINO BUEN PASO YTELEMACO FUE SIGUIENDO LAS PISADAS DE LA DEIDAD LLEGARON ADONDEESTABA LA JUNTA DE LOS VARONES PILIOS EN LOS ASIENTOS ALLI SEHABIA SENTADO NESTOR CON SUS HIJOS SU ALREDEDOR LOS COMPANEROSPREPARABAN EL BANQUETE YA ASANDO CARNE YA ESPETANDOLA EN LOSASADORES APENAS VIERON LOS HUESPEDES ADELANTARONSE TODOSJUNTOS LOS SALUDARON CON LAS MANOS LES INVITARON SENTARSEPISISTRATO NESTORIDA FUE EL PRIMERO QUE SE LES ACERCO ASIENDOLOSDE LA MANO LOS HIZO SENTAR PARA EL CONVITE EN UNAS BLANDAS PIELESSOBRE LA ARENA DEL MAR CERCA DE SU HERMANO TRASIMEDES DE SU PROPIOPADRE EN SEGUIDA DIOLES PARTE DE LAS ENTRANAS ECHO VINO EN UNA COPADE ORO OFRECIENDOSELA PALAS MINERVA HIJA DE JUPITER QUE LLEVALA EGIDA ASI LE DIJO FORASTERO ELEVA TUS PRECES AL SOBERANO NEPTUNO YA QUE AL VENIRACA OS HABEIS ENCONTRADO CON EL FESTIN QUE EN SU HONOR CELEBRAMOSMAS TAN PRONTO COMO HICIERES LA LIBACION HUBIERES ROGADO COMO ESJUSTO DALE ESE LA COPA DE DULCE VINO PARA QUE LO LIBE TAMBIENPUES SUPONGO QUE RUEGA ASIMISMO LOS DIOSES COMO QUE TODOS LOSHOMBRES ESTAN NECESITADOS DE LAS DEIDADES PERO CAUSA DE SER EL MASJOVENDEBE DE TENER MIS ANOSTE DARE PRIMERO TI LA AUREA COPA EN DICIENDO ESTO PUSOLE EN LA MANO LA COPA DE DULCE VINO MINERVAHOLGOSE DE VER LA PRUDENCIA LA EQUIDAD DEL VARON QUE LE DABA LACOPA DE ORO ELLA ANTES QUE TELEMACO AL PUNTO HIZO MUCHASSUPLICAS AL SOBERANO NEPTUNO OYEME NEPTUNO QUE CIRCUNDAS LA TIERRA TE NIEGUES LLEVARAL CABO LO QUE AHORA TE PEDIMOS ANTE TODO LLENA DE GLORIA NESTOR YA SUS VASTAGOS DALES LOS PILIOS GRATA RECOMPENSA POR TAN INCLITAHECATOMBE CONCEDE TAMBIEN QUE TELEMACO YO NOS VAYAMOS SINREALIZAR AQUELLO POR LO CUAL VINIMOS EN LA VELOZ NAVE NEGRA TAL FUE SU RUEGO ELLA MISMA CUMPLIO LO QUE ACABABA DE PEDIRENTREGO EN SEGUIDA LA HERMOSA COPA DOBLE TELEMACO EL CARO HIJODE ULISES ORO DE SEMEJANTE MANERA ASADOS YA LOS CUARTOS DELANTEROSRETIRARONLOS DIVIDIERONLOS EN PARTES CELEBRARON UN GRAN BANQUETEY CUANDO HUBIERON SATISFECHO EL DESEO DE COMER DE BEBER NESTOR ELCABALLERO GERENIO COMENZO DECIRLES ESTA ES LA OCASION MAS OPORTUNA PARA INTERROGAR LOS HUESPEDESE INQUIRIR QUIENES SON AHORA QUE SE HAN SACIADO DE COMIDAFORASTEROS QUIENES SOIS DE DONDE LLEGASTEIS NAVEGANDO PORLOS HUMEDOS CAMINOS VENIS POR ALGUN NEGOCIO ANDAIS POR EL MARA LA VENTURA COMO LOS PIRATAS QUE DIVAGAN EXPONIENDO SU VIDA YPRODUCIENDO DANO LOS HOMBRES DE EXTRANAS TIERRAS RESPONDIOLE EL PRUDENTE TELEMACO MUY ALENTADO PUES LA MISMAMINERVA LE INFUNDIO AUDACIA EN EL PECHO PARA QUE PREGUNTARA POR ELAUSENTE PADRE ADQUIRIERA GLORIOSA FAMA ENTRE LOS HOMBRES NESTOR NELIDA GLORIA INSIGNE DE LOS AQUEOS PREGUNTAS DEDONDE SOMOS PUES YO TE LO DIRE VENIMOS DE ITACA SITUADA AL PIEDEL NEYO EL NEGOCIO QUE NOS TRAE ES PUBLICO SINO PARTICULARANDO EN POS DE LA GRAN FAMA DE MI PADRE POR SI OYERE HABLAR DELDIVINO PACIENTE ULISES EL CUAL SEGUN AFIRMAN DESTRUYO LA CIUDADTROYANA COMBATIENDO CONTIGO DE TODOS LOS QUE GUERREARON CONTRA LOSTEUCROS SABEMOS DONDE PADECIERON DEPLORABLE MUERTE PERO EL SATURNIOHA QUERIDO QUE LA DE AQUEL SEA IGNORADA NADIE PUEDE INDICARNOSCLARAMENTE DONDE PERECIO NI SI HA SUCUMBIDO EN EL CONTINENTE PORMANO DE ENEMIGOS EN EL PIELAGO ENTRE LAS ONDAS DE ANFITRITE PORESTO VENIDO ABRAZAR TUS RODILLAS POR SI QUISIERAS CONTARME LATRISTE MUERTE DE AQUEL ORA LA HAYAS VISTO CON TUS OJOS ORA TE LAHAYA RELATADO ALGUN PEREGRINO QUE MUY SIN VENTURA LE PARIO SU MADREY NADA ATENUES POR RESPETO COMPASION QUE TENGAS AL CONTRARIOENTERAME BIEN DE LO QUE HAYAS VISTO YO TE LO RUEGO SI MI PADRE ELNOBLE ULISES TE CUMPLIO ALGUN DIA LA PALABRA QUE TE HUBIESE DADO OLLEVO SU TERMINO UNA ACCION QUE TE HUBIERA PROMETIDO ALLA EN ELPUEBLO DE LOS TROYANOS DONDE TANTOS MALES PADECISTEIS LOS AQUIVOSACUERDATE DE ELLO DIME LA VERDAD DE LO QUE TE PREGUNTO RESPONDIOLE NESTOR EL CABALLERO GERENIO OH AMIGO TRAES ALA MEMORIA LAS CALAMIDADES QUE EN AQUEL PUEBLO SUFRIMOS LOS AQUEOSINDOMABLES POR EL VALOR UNAS VECES VAGANDO EN LAS NAVES POR ELSOMBRIO PONTO HACIA DONDE NOS LLEVARA AQUILES EN BUSCA DE BOTIN YOTRAS COMBATIENDO ALREDEDOR DE LA GRAN CIUDAD DEL REY PRIAMO ALLIRECIBIERON LA MUERTE LOS MEJORES CAPITANES ALLI YACE EL BELICOSOAYAX ALLI AQUILES ALLI PATROCLO CONSEJERO IGUAL LOS DIOSESALLI MI AMADO HIJO FUERTE EXIMIO ANTILOCO MUY VELOZ EN EL CORRERY BUEN GUERRERO PADECIMOS ADEMAS MUCHOS INFORTUNIOS CUAL DE LOSMORTALES HOMBRES PODRIA REFERIRLOS TOTALMENTE AUNQUE DETENIENDOTEAQUI CINCO SEIS ANOS TE OCUPARAS EN PREGUNTAR CUANTOS MALESPADECIERON ALLA LOS DIVINOS AQUEOS TE FUERA POSIBLE SABERLOSTODOS SINO QUE ANTES DE LLEGAR AL TERMINO CANSADO YA TE IRIAS ATU PATRIA TIERRA NUEVE ANOS ESTUVIMOS TRAMANDO COSAS MALAS CONTRAELLOS PONIENDO SU ALREDEDOR ASECHANZAS DE TODA CLASE APENASSI ENTONCES PUSO FIN EL SATURNIO NUESTROS TRABAJOS ALLI HUBONADIE QUE EN PRUDENCIA QUISIESE IGUALARSE CON EL DIVINAL ULISES CONTU PADRE QUE ENTRE TODOS DESCOLLABA POR SUS ARDIDES DE TODO GENEROSI VERDADERAMENTE ERES TU SU HIJO PUES QUEDADO ATONITO ALCONTEMPLARTE SEMEJANTES SON ASIMISMO TUS PALABRAS LAS SUYASY SE CREERIA QUE UN JOVEN PUDIERA HABLAR DE MODO TAN PARECIDONUNCA ULISES YO ESTUVIMOS DISCORDES AL ARENGAR EN EL AGORA OEN EL CONSEJO SINO QUE TENIENDO EL MISMO ANIMO ACONSEJABAMOSCON INTELIGENCIA PRUDENTE DECISION LOS ARGIVOS PARA QUE TODOFUESE DE LA MEJOR MANERA MAS TAN PRONTO COMO DESPUES DE HABERDESTRUIDO LA EXCELSA CIUDAD DE PRIAMO NOS EMBARCAMOS EN LAS NAVESY UNA DEIDAD DISPERSO LOS AQUEOS JUPITER TRAMO EN SU MENTE QUEFUERA LUCTUOSA LA VUELTA DE LOS ARGIVOS QUE TODOS HABIAN SIDOSENSATOS JUSTOS CAUSA DE ELLO LES VINO MUCHOS UNA FUNESTASUERTE POR LA PERNICIOSA COLERA DE LA DEIDAD DE LOS BRILLANTES OJOSHIJA DEL PREPOTENTE PADRE LA CUAL SUSCITO ENTRE AMBOS ATRIDASGRAN CONTIENDA LLAMARON AL AGORA LOS AQUIVOS PERO TEMERARIAE INOPORTUNAMENTEFUE AL PONERSE EL SOL TODOS COMPARECIERONCARGADOS DE VINOY EXPUSIERONLES LA RAZON DE HABER CONGREGADOAL PUEBLO MENELAO EXHORTO TODOS LOS AQUEOS QUE PENSARAN ENVOLVER LA PATRIA POR EL ANCHO DORSO DEL MAR COSA QUE DESPLUGOCOMPLETAMENTE AGAMENON PUES QUERIA DETENER AL PUEBLO APLACARCON SACRAS HECATOMBES LA TERRIBLE COLERA DE MINERVA OH NECIO NOALCANZABA QUE HABIA DE CONVENCERLA PORQUE CAMBIA DE SUBITO LAMENTE DE LOS SEMPITERNOS DIOSES ASI AMBOS DESPUES DE ALTERCAR CONDURAS PALABRAS SEGUIAN EN PIE LOS AQUEOS DE HERMOSAS GREBASSE LEVANTARON PRODUCIENDOSE UN VOCERIO INMENSO PORQUE UNO OTROPARECER TENIAN SUS PARTIDARIOS AQUELLA NOCHE LA PASAMOS REVOLVIENDOEN NUESTRA INTELIGENCIA GRAVES PROPOSITOS LOS UNOS CONTRA LOS OTROSPUES YA JUPITER NOS APAREJABA FUNESTAS CALAMIDADES AL DESCUBRIRSE LAAURORA ECHAMOS LAS NAVES AL MAR DIVINO EMBARCAMOS NUESTROS BIENESY LAS MUJERES DE ESTRECHA CINTURA LA MITAD DEL PUEBLO SE QUEDOALLI CON EL ATRIDA AGAMENON PASTOR DE HOMBRES LOS RESTANTES NOSHICIMOS LA MAR PUES UN NUMEN CALMO EL PONTO QUE ABUNDA EN GRANDESCETACEOS BIEN LLEGAMOS TENEDOS OFRECIMOS SACRIFICIOS LOSDIOSES CON EL ANHELO DE TORNAR NUESTRAS CASAS PERO JUPITER AUN NOTENIA ORDENADA LA VUELTA SUSCITO OH CRUEL UNA NUEVA PERNICIOSADISPUTA LOS QUE ACOMPANABAN ULISES REY PRUDENTE SAGAZ SEVOLVIERON EN LOS CORVOS BAJELES PARA COMPLACER NUEVAMENTE AGAMENONATRIDA PERO YO CON LAS NAVES QUE JUNTAS SEGUIAN CONTINUEHUYENDO PORQUE COMPRENDI QUE ALGUNA DIVINIDAD MEDITABA CAUSARNOSDANO HUYO TAMBIEN EL BELICOSO HIJO DE TIDEO CON LOS SUYOS DESPUESDE INCITARLOS QUE LE SIGUIERAN JUNTOSENOS ALGO MAS TARDE ELRUBIO MENELAO EL CUAL NOS ENCONTRO EN LESBOS MIENTRAS DELIBERABAMOSACERCA DE LA LARGA NAVEGACION QUE NOS ESPERABA SABER SIPASARIAMOS POR CIMA DE LA ESCABROSA QUIOS HACIA LA ISLA DE PSIRIAPARA DEJAR ESTA ULTIMA LA IZQUIERDA POR DEBAJO DE LA PRIMERAA LO LARGO DEL VENTOSO MIMANTE SUPLICAMOS LA DIVINIDAD QUE NOSMOSTRASE ALGUNA SENAL NOS LA DIO ORDENANDONOS QUE ATRAVESARAMOS ELPIELAGO HACIA LA EUBEA FIN DE QUE HUYERAMOS LO ANTES POSIBLE DELINFORTUNIO VENIDERO COMENZO SOPLAR UN SONORO VIENTO LAS NAVESSURCANDO CON GRAN CELERIDAD EL CAMINO ABUNDANTE EN PECES LLEGARONPOR LA NOCHE GERESTO ALLI OFRECIMOS NEPTUNO BUEN NUMERO DEMUSLOS DE TORO POR HABER HECHO LA TRAVESIA DEL DILATADO PIELAGO YAERA EL CUARTO DIA CUANDO LOS COMPANEROS DE DIOMEDES TIDIDA DOMADORDE CABALLOS SE DETUVIERON EN ARGOS CON SUS BIEN PROPORCIONADASNAVES PERO YO TOME LA ROTA DE PILOS NUNCA FALTO EL VIENTO DESDEQUE UN DIOS LO ENVIARA PARA QUE SOPLASE ASI VINE HIJO QUERIDO SINSABER NADA IGNORANDO CUALES AQUEOS SE SALVARON CUALES PERECIERONMAS CUANTO OI REFERIR DESDE QUE TORNE MI PALACIO LO SABRAS AHORACOMO ES JUSTO QUE DEBO OCULTARTE NADA DICEN QUE HAN LLEGADOBIEN LOS VALEROSOS MIRMIDONES QUIENES CONDUCIA EL HIJO ILUSTRE DELMAGNANIMO AQUILES QUE ASIMISMO APORTO CON FELICIDAD FILOCTETESHIJO PRECLARO DE PEANTE QUE IDOMENEO LLEVO CRETA TODOS SUSCOMPANEROS QUE ESCAPARON DE LOS COMBATES SIN QUE EL MAR LE QUITARANI UNO SOLO DEL ATRIDA VOSOTROS MISMOS HABREIS OIDO CONTAR AUNQUEVIVIS TAN LEJOS COMO VINO COMO EGISTO LE APAREJO UNA DEPLORABLEMUERTE PERO DE LAMENTABLE MODO HUBO DE PAGARLO CUAN BUENO ES PARAEL QUE MUERE DEJAR UN HIJO ASI ORESTES SE HA VENGADO DEL MATADORDE SU PADRE DEL DOLOSO EGISTO QUE LE HABIA MUERTO SU ILUSTREPROGENITOR TAMBIEN TU AMIGO YA QUE VEO QUE ERES GALLARDO DEELEVADA ESTATURA SE FUERTE PARA QUE LOS VENIDEROS TE ELOGIEN CONTESTOLE EL PRUDENTE TELEMACO NESTOR NELIDA GLORIA INSIGNEDE LOS AQUEOS AQUEL TOMO POCA VENGANZA LOS AQUIVOS DIFUNDIRANSU EXCELSA GLORIA QUE LLEGARA CONOCIMIENTO DE LOS FUTUROS HOMBRESHUBIERANME CONCEDIDO LOS DIOSES BRIOS BASTANTES PARA CASTIGAR LAPENOSA SOBERBIA DE LOS PRETENDIENTES QUE INSULTAN MAQUINANDOINICUAS ACCIONES MAS LOS DIOSES NOS OTORGARON TAMANA VENTURA NI AMI PADRE NI MI AHORA ES PRECISO SOPORTARLO TODO RESPONDIOLE NESTOR EL CABALLERO GERENIO OH AMIGO YA QUEME RECUERDAS LO QUE CONTADO AFIRMAN QUE SON MUCHOS LOS QUEPRETENDIENDO TU MADRE COMETEN DESPECHO TUYO ACCIONES INICUAS ENEL PALACIO DIME SI TE SOMETES VOLUNTARIAMENTE TE ODIA QUIZAS LAGENTE DEL PUEBLO CAUSA DE LO REVELADO POR UN DIOS QUIEN SABE SIALGUN DIA CASTIGARA ESAS DEMASIAS TU PROPIO PADRE VINIENDO SOLO OJUNTAMENTE CON TODOS LOS AQUEOS OJALA MINERVA LA DE LOS BRILLANTESOJOS TE QUISIERA COMO EN OTRO TIEMPO SE CUIDABA DEL GLORIOSO ULISESEN EL PAIS TROYANO DONDE LOS AQUEOS PADECIMOS TANTOS MALESQUENUNCA OI QUE LOS DIOSES AMASEN TAN MANIFIESTAMENTE NINGUNO COMOA EL LE ASISTIA PALAS MINERVAPUES SI DE SEMEJANTE MODO LADIOSA TE QUISIERA SE CUIDARA DE TI EN SU CORAZON ALGUNO DE LOSPRETENDIENTES TENDRIA QUE OLVIDARSE DE LAS NUPCIAS REPLICOLE EL PRUDENTE TELEMACO OH ANCIANO YA CREO QUETALES COSAS SE CUMPLAN ES MUY GRANDE LO QUE DIJISTE TIENESPASMADO MAS ESPERO QUE SE REALICE AUNQUE ASI LO QUIERAN LOSMISMOS DIOSES DIJOLE MINERVA LA DEIDAD DE LOS BRILLANTES OJOS TELEMACOQUE PALABRAS SE TE ESCAPARON DEL CERCO DE LOS DIENTES FACIL LE ES AUNA DEIDAD CUANDO LO QUIERE SALVAR UN HOMBRE AUN DESDE LEJOS YYO PREFERIRIA RESTITUIRME MI CASA VER LUCIR EL DIA DE LA VUELTAHABIENDO PASADO MUCHOS MALES PERECER TAN LUEGO COMO LLEGARA MIHOGAR COMO AGAMENON QUE MURIO EN LA CELADA QUE LE TENDIERON EGISTOY SU PROPIA ESPOSA MAS NI AUN LOS DIOSES PUEDEN LIBRAR DE LA MUERTEIGUAL PARA TODOS UN HOMBRE QUE LES SEA CARO DESPUES QUE SE HAAPODERADO DEL MISMO LA PARCA FUNESTA DE LA ATERRADORA MUERTE CONTESTOLE EL PRUDENTE TELEMACO MENTOR HABLEMOS MAS DETALES COSAS AUNQUE NOS SINTAMOS AFLIGIDOS YA LA VUELTA DE AQUEL NOPUEDE REALIZARSE PUES LOS INMORTALES DEBEN DE HABERLE ENVIADO LAMUERTE EL NEGRO DESTINO PERO AHORA QUIERO INTERROGAR NESTOR YHACERLE OTRA PREGUNTA YA QUE EN JUSTICIA PRUDENCIA SOBRESALE ENTRETODOS DICEN QUE HA REINADO DURANTE TRES GENERACIONES DE HOMBRESDE SUERTE QUE AL CONTEMPLARLO PARECE UN INMORTAL OH NESTORNELIDA DIME LA VERDAD COMO MURIO EL PODEROSISIMO AGAMENON ATRIDADONDE ESTABA MENELAO QUE GENERO DE MUERTE FUE LA QUE URDIO ELDOLOSO EGISTO PARA QUE PERECIERA UN VARON QUE TANTO LE AVENTAJABAFUE QUIZAS EL ENCONTRARSE MENELAO EN ARGOS LA DE ACAYA PUESANDARIA PEREGRINO ENTRE OTRAS GENTES LA CAUSA DE QUE EGISTO COBRARAESPIRITU MATASE AQUEL HEROE RESPONDIOLE NESTOR EL CABALLERO GERENIO TE DIRE HIJO MIOLA VERDAD PURA YA PUEDES IMAGINAR COMO EL HECHO OCURRIO SI ELRUBIO MENELAO ATRIDA AL VOLVER DE TROYA HALLARA EN EL PALACIO AEGISTO VIVO AUN NI TAN SOLO HUBIESEN CUBIERTO DE TIERRA EL CADAVERDE ESTE ARROJADO LA LLANURA LEJOS DE LA CIUDAD LO DESPEDAZARANLOS PERROS LAS AVES DE RAPINA SIN QUE LE LLORASE NINGUNA DE LASAQUEAS PORQUE HABIA COMETIDO UNA MALDAD MUY GRANDE PUES MIENTRASNOSOTROS PERMANECIAMOS ALLA REALIZANDO MUCHAS EMPRESAS BELICOSASEL SE ESTABA TRANQUILO EN LO MAS HONDO DE ARGOS TIERRA CRIADORA DECORCELES PONIA GRAN EMPENO EN SEDUCIR CON SUS PALABRAS LA ESPOSADE AGAMENON AL PRINCIPIO LA DIVINAL CLITEMNESTRA REHUSO COMETER ELHECHO INFAME PORQUE TENIA BUENOS SENTIMIENTOS LA ACOMPANABA UNAEDO QUIEN EL ATRIDA AL PARTIR PARA TROYA ENCARGO EN GRAN MANERAQUE LA GUARDASE MAS CUANDO VINO EL MOMENTO EN QUE CUMPLIENDOSEEL HADO DE LOS DIOSES TENIA QUE SUCUMBIR EGISTO CONDUJO AL AEDOA UNA ISLA INHABITADA DONDE LO ABANDONO PARA QUE FUESE PRESA YPASTO DE LAS AVES DE RAPINA LLEVOSE DE BUEN GRADO SU CASA LAMUJER QUE TAMBIEN LO DESEABA QUEMANDO DESPUES GRAN CANTIDAD DEMUSLOS EN LOS SACROS ALTARES DE LOS DIOSES COLGANDO MUCHAS FIGURASTEJIDOS ORO POR HABER SALIDO CON LA GRAN EMPRESA QUE NUNCA SUANIMO ESPERARA LLEVAR AL CABO VENIAMOS PUES DE TROYA EL ATRIDAY YO NAVEGANDO JUNTOS EN BUENA AMISTAD PERO ASI QUE ARRIBAMOSAL SACRO PROMONTORIO DE SUNIO CERCA DE ATENAS FEBO APOLO MATO CONSUS SUAVES FLECHAS AL PILOTO DE MENELAO FRONTIS ONETORIDA QUEENTONCES TENIA EN LAS MANOS EL TIMON DEL BARCO TODOS VENCIA EN ELARTE DE GOBERNAR UNA EMBARCACION CUANDO ARRECIABAN LAS TEMPESTADESASI FUE COMO PESAR DE SU DESEO DE PROSEGUIR EL CAMINO SE VIOOBLIGADO DETENERSE PARA ENTERRAR AL COMPANERO HACERLE LAS HONRASFUNERALES LUEGO ATRAVESANDO EL VINOSO PONTO EN LAS CONCAVAS NAVESPUDO LLEGAR TODA PRISA AL ELEVADO PROMONTORIO DE MALEA ELLONGIVIDENTE JUPITER HIZOLE TRABAJOSO EL CAMINO CON ENVIARLE VIENTOSDE SONORO SOPLO OLAS HINCHADAS ENORMES QUE PARECIAN MONTANASENTONCES EL DIOS DISPERSO LAS NAVES ALGUNAS LAS LLEVO HACIA CRETADONDE HABITABAN LOS CIDONES JUNTO LAS CORRIENTES DEL YARDANO HAYEN EL OBSCURO PONTO UNA PENA ESCARPADA ALTA QUE SALE AL MAR CERCADE GORTINA ALLI EL NOTO LANZA LAS OLAS CONTRA EL PROMONTORIO DE LAIZQUIERDA CONTRA FESTO UNA ROCA PEQUENA ROMPE LA GRANDE OLEADAEN SEMEJANTE SITIO FUERON DAR COSTOLES MUCHO ESCAPAR CON VIDAPUES HABIENDO LAS OLAS ARROJADO LOS BAJELES CONTRA LOS ESCOLLOSPADECIERON NAUFRAGIO MENELAO CON CINCO NAVES DE CERULEA PROAAPORTO EGIPTO ADONDE EL VIENTO EL MAR LE HABIAN CONDUCIDO ENTANTO QUE CON SUS GALERAS IBA ERRANTE POR EXTRANOS PAISES JUNTANDORIQUEZAS MUCHO ORO EGISTO TRAMO EN EL PALACIO AQUELLAS DEPLORABLESACCIONES SIETE ANOS REINO ESTE EN MICENAS RICA EN ORO TUVOSOJUZGADO AL PUEBLO CON POSTERIORIDAD LA MUERTE DEL ATRIDA MASPOR SU DESGRACIA EN EL OCTAVO FUE DE ATENAS EL DIVINAL ORESTESQUIEN HIZO PERECER AL MATADOR DE SU PADRE AL DOLOSO EGISTO QUELE HABIA MUERTO SU ILUSTRE PROGENITOR DESPUES DE MATARLE ORESTESDIO LOS ARGIVOS EL BANQUETE FUNEBRE EN LAS EXEQUIAS DE SU ODIOSAMADRE DEL COBARDE EGISTO AQUEL DIA LLEGO MENELAO VALIENTE EN ELCOMBATE CON MUCHAS RIQUEZAS TANTAS COMO LOS BARCOS PODIAN LLEVARY TU AMIGO ANDES MUCHO TIEMPO FUERA DE TU CASA HABIENDO DEJADOEN ELLA LAS RIQUEZAS UNOS HOMBRES TAN SOBERBIOS SEA QUE SEREPARTAN TUS BIENES LOS DEVOREN LUEGO EL VIAJE TE RESULTE INUTILPERO YO TE EXHORTO E INCITO QUE ENDERECES TUS PASOS HACIA MENELAOEL CUAL POCO HA QUE VOLVIO DE GENTES DE DONDE ESPERARA TORNARQUIEN SE VIERA DESVIADO POR LAS TEMPESTADES EN UN PIELAGO TAL TANEXTENSO QUE NI LAS AVES LLEGARIAN DEL MISMO EN TODO UN ANO PUES ESDILATADISIMO HORRENDO AHORA EN TU NAVE CON TUS COMPANEROS AENCONTRARLE SI DESEAS IR POR TIERRA AQUI TIENES CARRO CORCELESY MIS HIJOS QUE TE ACOMPANARAN HASTA LA DIVINA LACEDEMONIA DONDESE HALLA EL RUBIO MENELAO EN LLEGANDO RUEGALE TU MISMO QUE SEAVERAZ MENTIRA PORQUE ES MUY SENSATO ASI SE EXPRESO PUSOSE EL SOL SOBREVINO LA OBSCURIDAD YENTONCES HABLO MINERVA LA DIOSA DE LOS BRILLANTES OJOS OH ANCIANO TODO LO REFERIDO DISCRETAMENTE PERO EACORTAD LAS LENGUAS MEZCLAD VINO PARA QUE DESPUES DE HACERLIBACION NEPTUNO LOS DEMAS INMORTALES PENSEMOS EN ACOSTARNOSQUE YA ES HORA LA LUZ DEL SOL SE FUE AL OCASO CONVIENEPERMANECER LARGO TIEMPO EN EL BANQUETE DE LOS DIOSES PUES ES PRECISORECOGERSE AS
[...]
SUENO XIX ULISES SE ACUESTA EN EL VESTIBULO DEL PALACIO COMO CIERTAS ESCLAVAS VAN AYUNTARSE CON ALGUNOS DE LOS PRETENDIENTES REPRENDE SU CORAZON SE LE ACERCA MINERVA EL HEROE LE PREGUNTA ADONDE PODRA REFUGIARSE DESPUES DE MATAR LOS PRETENDIENTES LA DIOSA LE TRANQUILIZA LE INFUNDE SUENO XX PENELOPE DESEA QUE DIANA LA MATE SE LA LLEVEN LAS BORRASCAS FIN DE PENETRAR EN LA TIERRA TENIENDO ANTE SUS OJOS ULISES XX ANADE QUE AQUELLA NOCHE SE HA ACOSTADO SU LADO UN FANTASMA MUY SEMEJANTE ULISES XX ULISES OYE LOS SOLLOZOS DE PENELOPE RECOGE EL MANTO LAS PIELES EN QUE ESTABA ECHADO PIDE JUPITER QUE LE ENVIE UN PRESAGIO HAGA APARECER OTRO PRODIGIO EL DIOS LE COMPLACE EL HEROE SE ALEGRA XX LAS ESCLAVAS ENCIENDEN FUEGO EN EL PALACIO DE ULISES XX LLEGAN LOS PASTORES EUMEO PREGUNTA AL MENDIGO ULISES SI YA LE TRATAN MEJOR ESTE RESPONDE DESEANDO QUE UN DIOS CASTIGUE LOS PRETENDIENTES MELANTIO LE INCREPA ULISES SIN CONTESTARLE AGITA EN SU ALMA SINIESTROS PROPOSITOS FILETIO PREGUNTA EUMEO QUIEN ES EL FORASTERO EN SEGUIDA VA SALUDARLE DICE QUE LE HA HECHO RECORDAR ULISES MANIFIESTA QUE YA SE HUBIESE IDO EL OTRO PAIS PERO AGUARDA TODAVIA SU SENOR XX EL MENDIGO ULISES DICE FILETIO QUE ULISES VOLVERA RESPONDE EL BOYERO QUE ENTONCES VERIAN QUE FUERZA QUE BRAZOS TIENE EUMEO SUPLICA ASIMISMO LOS DIOSES QUE VUELVA ULISES XX ENCAMINANSE LOS PRETENDIENTES AL PALACIO DE ULISES XX TELEMACO HACE SENTAR AL MENDIGO ULISES JUNTO AL UMBRAL LE SIRVE CARNE VINO LE PROMETE QUE LE LIBRARA DE LAS MANOS DE TODOS LOS PRETENDIENTES PUES AQUELLA CASA ES PUBLICA SINO DE ULISES QUE LA ADQUIRIO PARA EL XX SIRVENLE ULISES UNA PARTE IGUAL LA DE LOS DEMAS COMENSALES XX MINERVA PERMITE QUE LOS PRETENDIENTES SE ABSTENGAN DE INJURIAR ULISES CTESIPO LE TIRA UNA PATA DE BUEY EL HEROE LOGRA EVITAR EL GOLPE SE SONRIE CON RISA SARDONIA XX AGELAO ACONSEJA QUE SE MALTRATE AL HUESPED NI NINGUN ESCLAVO DE LA CASA DE ULISES LUEGO DIRIGIENDOSE TELEMACO SU MADRE DICE QUE CON RAZON ENTRETENIAN LOS PRETENDIENTES MIENTRAS CONSERVABAN LA ESPERANZA DE QUE EL HEROE TORNARA PERO QUE SIENDO EVIDENTE QUE HA DE VOLVER DEBE TELEMACO ACONSEJAR SU MADRE QUE SE CASE XX VATICINA TEOCLIMENO LA MUERTE DE LOS PRETENDIENTES QUE EN EL PALACIO DE ULISES MAQUINAN INICUAS ACCIONES XX MINERVA INSPIRA PENELOPE QUE EN LA PROPIA CASA DE ULISES LES SAQUE LOS PRETENDIENTES EL ARCO LAS SEGURES PARA CELEBRAR EL CERTAMEN XXI EL ARCO SE LO HABIA DADO ULISES SU HUESPED IFITO EL HEROE LO DEJO EN EL PALACIO AL PARTIR PARA ILION XXI PENELOPE LLEVA LOS PRETENDIENTES EL ARCO DE ULISES PROMETE IRSE CON QUIEN LOGRE ARMARLO HACER PASAR LA FLECHA POR EL OJO DE LAS SEGURES XXI ANTINOO DECLARA QUE HAY ENTRE LOS PRETENDIENTES UN HOMBRE COMO FUE ULISES HABIA DE SER ANTINOO QUIEN PRIMERO GUSTARA LA SAETA DESPEDIDA POR LA MANO DE ESTE XXI CUANDO TELEMACO VA TENDER EL ARCO ULISES SE LO PROHIBE HACIENDOLE UNA SENA XXI DICE LIODES QUE TODOS DESEAN CASARSE CON LA ESPOSA DE ULISES PERO ASI QUE PRUEBEN EL ARCO TENDRAN QUE DEDICARSE PRETENDER OTRAS AQUIVAS XXI SALEN DEL PALACIO EL BOYERO EL PORQUERIZO DE ULISES SIGUELES ESTE LES PREGUNTA COMO SE PORTARIAN SI VOLVIERA SU SENOR SE DA CONOCER LLORAN SE ABRAZAN ULISES RECOMIENDA EUMEO QUE LE DE EL ARCO AUNQUE LOS PRETENDIENTES SE OPONGAN FILETIO QUE CIERRE LAS PUERTAS DEL PATIO VUELVE ULISES AL PALACIO POCO DESPUES ENTRAN TAMBIEN AMBOS ESCLAVOS XXI EURIMACO DEPLORA QUE LAS FUERZAS DE LOS PRETENDIENTES SEAN TAN INFERIORES LAS DE ULISES XXI PROPONE ANTINOO QUE SE DEJEN CLAVADAS LAS SEGURES PUES SE LAS LLEVARA NINGUNO DE LOS QUE FRECUENTAN EL PALACIO DE ULISES AL DIA SIGUIENTE INTENTARAN ARMAR EL ARCO DE ESTE HEROE XXI PIDE EL MENDIGO ULISES QUE LE PERMITAN PROBAR EL ARCO TODOS SE OPONEN ANTINOO LE AMENAZA CON ENVIARLO AL REY EQUETO PENELOPE DICE QUE ES JUSTO QUE SE ULTRAJE LOS HUESPEDES DE PENELOPE EURIMACO CONTESTA QUE LES AVERGONZARIA EL MENDIGO SI LLEGABA TENDER EL ARCO PENELOPE OFRECE DAR AL MENDIGO UN MANTO UNA TUNICA SI LOGRA SU PROPOSITO XXI PENELOPE LLORA POR ULISES HASTA QUE MINERVA LE DIFUNDE EN LOS PARPADOS EL DULCE SUENO XXI EUMEO LLEVA EL ARCO AL MENDIGO ULISES LOS PRETENDIENTES LE INCREPAN TELEMACO LE AMENAZA SI SIGUE ADELANTE POR FIN LO PONE EN LAS MANOS DEL HEROE XXI FILETIO CIERRA LAS PUERTAS DEL PATIO VUELVE SENTARSE CLAVANDO LOS OJOS EN ULISES XXI ULISES EXAMINA MINUCIOSAMENTE EL ARCO LO ARMA PRUEBA LA CUERDA HUELGASE DE OIR UN TRUENO QUE DESPIDE COMO PRESAGIO EL PROPIO JUPITER HACE PASAR UNA FLECHA POR EL OJO DE LAS SEGURES DICE TELEMACO QUE LE AFRENTA EL HUESPED QUE TIENE EN SU CASA QUE YA ES HORA DE APAREJAR LA CENA LOS AQUEOS TELEMACO TOMA LAS ARMAS SE PONE AL LADO DE SU PADRE XXI ULISES SE DESNUDA DE SUS HARAPOS SALTA AL UMBRAL DICE QUE QUIERE APUNTAR OTRO BLANCO ASESTANDO EL ARCO ANTINOO LE CLAVA UNA FLECHA EN LA GARGANTA LO MATA XXII LOS PRETENDIENTES INCREPAN ULISES ESTE SE DA CONOCER EURIMACO OFRECE RESARCIRLE LO COMIDO RAZON DE VEINTE BUEYES POR CADA UNO DE LOS PRETENDIENTES EL HEROE DECLARA QUE SE ABSTENDRA DE MATAR HASTA QUE TODOS HAYAN PAGADO SUS DEMASIAS XXII EURIMACO ARREMETE CONTRA ULISES ESTE LE CLAVA UNA SAETA EN EL HIGADO XXII ANFINOMO SE VA DERECHO ULISES TELEMACO LE PREVIENE CON HUNDIRLE LA LANZA EN LA ESPALDA XXII MANDA ULISES TELEMACO QUE LE TRAIGA ARMAS MIENTRAS TIENE SAETAS PARA RECHAZAR LOS PRETENDIENTES XXII ARMANSE TELEMACO EUMEO FILETIO SE COLOCAN AMBOS LADOS DE ULISES XXII MANDA ULISES QUE EUMEO GUARDE EL POSTIGO XXII MELANTIO DICE QUE VA BUSCAR ARMAS AL APOSENTO DONDE CREE QUE LAS COLOCARON ULISES SU HIJO SUBE LA ESTANCIA DE ULISES DA LAS ARMAS LOS PRETENDIENTES DESFALLECEN LAS RODILLAS EL CORAZON DE ULISES AL VERLES TOMAR LAS ARMAS DICE EL HEROE TELEMACO QUE ALGUNA MUJER MELANTIO ATIZA EL COMBATE TELEMACO SE DECLARA EL UNICO CULPABLE POR HABER DEJADO ABIERTA LA HABITACION XXII EUMEO QUE ES MELANTIO QUIEN PROPORCIONA LAS ARMAS LOS PRETENDIENTES POR ORDEN DE ULISES EL FILETIO ECHAN POR TIERRA AL CABRERO LE ATAN CON UNA SOGA LOS PIES LAS MANOS LO LEVANTAN LA PARTE SUPERIOR DE UNA COLUMNA XXII VUELVEN EUMEO FILETIO AL LADO DE ULISES XXII PRESENTASE MINERVA TRANSFIGURADA EN MENTOR ULISES SE HUELGA DE VERLA LE PIDE QUE APARTE DE ELLOS EL INFORTUNIO LOS PRETENDIENTES LA INCREPAN AMENAZAN MINERVA DESPUES DE REPRENDER ULISES DICIENDOLE QUE YA TIENE EL VIGOR LA FORTALEZA QUE DEMOSTRO EN LA GUERRA DE TROYA SE TRANSFORMA EN GOLONDRINA SE POSA EN UNA DE LAS VIGAS XXII RECOMIENDA AGELAO QUE TIREN LA PICA SEIS PRETENDIENTES POR SI JUPITER LES CONCEDE HERIR ULISES XXII ULISES INVITA LOS SUYOS TIRAR LAS LANZAS CONTRA LA TURBA DE LOS PRETENDIENTES MATA DEMOPTOLEMO EL HEROE SUS COMPANEROS SACAN DE LOS CADAVERES LAS LANZAS QUE LES HAN CLAVADO XXII VUELVE ULISES DESPEDIR LA LANZA MATA EURIDAMANTE XXII DICE EUMEO CTESIPO AL HERIRLE EN EL PECHO QUE RECIBA AQUEL PRESENTE DE HOSPITALIDAD POR LA PATA DE BUEY QUE DIO ULISES XXII MATA ULISES AGELAO DAMASTORIDA XXII LIODES RUEGA ULISES QUE LO MATE EL HEROE LE CORTA LA CABEZA XXII FEMIO VACILA ENTRE REFUGIARSE EN EL ALTAR DE JUPITER DONDE TANTOS MUSLOS DE BUEY HABIAN QUEMADO LAERTES ULISES SUPLICAR ESTE ABRAZARLE LAS RODILLAS PARECELE MEJOR LO ULTIMO E IMPLORA ULISES ALEGANDO QUE UN DIOS LE INSPIRA CANCIONES DE TODA ESPECIE TELEMACO INTERCEDE EN FAVOR DEL AEDO DE MEDONTE ULISES SE ABSTIENE DE MATAR ENTRAMBOS LES ORDENA QUE VAYAN SENTARSE AL PATIO XXII ULISES REGISTRA LA SALA QUE TODOS LOS PRETENDIENTES ESTAN MUERTOS MANDA TELEMACO QUE LLAME EURICLEA XXII AL HALLAR ULISES ENTRE LOS CADAVERES EURICLEA PROFIERE EXCLAMACIONES DE ALEGRIA PERO EL HEROE LE IMPONE SILENCIO DICIENDO QUE ES PIADOSO REGOCIJARSE POR LA MUERTE DE AQUELLOS VARONES LE MANDA QUE SIN DESPERTAR PENELOPE HAGA VENIR LAS MUJERES CULPABLES XXII ULISES MANDA TELEMACO EUMEO FILETIO QUE HAGAN TRASLADAR LOS CADAVERES PONGAN EN ORDEN LA ESTANCIA MATEN LAS MUJERES CULPABLES XXII ULISES DA PRISA LAS MUJERES PARA QUE TRASLADEN LOS CADAVERES AL PORTICO XXII CONSUMADA LA OBRA TELEMACO EUMEO FILETIO VUELVEN ENTRAR EN EL PALACIO DE ULISES XXII ULISES ORDENA EURICLEA QUE LE TRAIGA FUEGO AZUFRE MANDE PENELOPE LAS ESCLAVAS QUE SE PRESENTEN XXII ULISES VUELVE PEDIR EL FUEGO EN SEGUIDA AZUFRA LA CASA MIENTRAS LA VIEJA SE VA POR LA HERMOSA MANSION DE ULISES LLAMAR LAS MUJERES XXII LAS ESCLAVAS ABRAZAN BESAN ULISES QUE LAS RECONOCE TODAS XXII EURICLEA DICE PENELOPE QUE HA LLEGADO ULISES HA DADO MUERTE LOS PRETENDIENTES LA REINA LO CREE COMO EURICLEA INSISTE EN SU AFIRMACION SE FIGURA QUE ALGUN DIOS LOS HABRA CASTIGADO DECIDE BAJAR PARA VER MUERTOS LOS PRETENDIENTES QUIEN LOS HA MATADO XXIII SIENTASE PENELOPE EN FRENTE DE ULISES SIN HABLARLE TELEMACO LA REPRENDE POR SU FRIALDAD CONTESTA AQUELLA QUE SI ES ULISES YA SE RECONOCERAN POR CIERTAS SENALES QUE ELLOS SABEN ULISES ENCARGA TELEMACO QUE DEJE QUE SU MADRE LE PRUEBE XXIII CONSULTA ULISES TELEMACO SOBRE LO QUE CONVIENE HACER RESPONDE ESTE QUE LO VEA EL MISMO AQUEL ORDENA QUE EL AEDO TOQUE LOS DEMAS BAILEN PARA QUE LOS VECINOS TRANSEUNTES CREAN QUE SE HA CASADO LA REINA QUE AL AMANECER SE VAYAN ULISES TELEMACO EUMEO FILETIO LA CASA QUE LAERTES TIENE EN EL CAMPO XXIII EURINOME LAVA ULISES MINERVA LE DA HERMOSURA EL HEROE SE SIENTA FRENTE SU ESPOSA LE ECHA EN CARA SU FRIALDAD PENELOPE PARA PROBARLE DICE EURICLEA QUE SAQUE DEL CUARTO LA CAMA DE ULISES ESTE SE EXTRANA PORQUE LA CAMA QUE DESCRIBE ESTA SUJETA UN PIE DE OLIVO SIGUE UNA TIERNA ESCENA DE RECONOCIMIENTO ALARGANDO MINERVA AQUELLA NOCHE PARA QUE LA AURORA HALLE LOS DOS ESPOSOS LLORANDO TODAVIA XXIII DICE ULISES PENELOPE QUE AUN FALTA LLEVAR AL CABO OTRA EMPRESA GRANDE LARGA DIFICIL ACCEDIENDO SUS SUPLICAS RELATA LO QUE TIRESIAS LE MANDO QUE HICIERA AL LLEGAR ITACA XXIII ULISES PENELOPE SE VAN LA CAMA ALUMBRADOS POR EURINOME DISFRUTAN DEL DESEABLE AMOR PENELOPE REFIERE CUANTO PADECIO EN LA AUSENCIA DE SU MARIDO ULISES CUENTA SUS AVENTURAS SE DUERME XXIII ASI QUE SE DESCUBRE LA AURORA ULISES SE LEVANTA DEL LECHO RECOMIENDA PENELOPE QUE SE QUEDE EN LO ALTO DE LA CASA SALE AL CAMPO CON TELEMACO EUMEO FILETIO XXIII MIENTRAS ESTAN HABLANDO AQUILES AGAMENON LLEGAN AL ORCO LAS ALMAS DE LOS PRETENDIENTES QUIENES MATARA ULISES XXIV AGAMENON RECUERDA ANFIMEDONTE QUE ESTUVO EN SU CASA ALLA EN ITACA CUANDO FUE CON MENELAO EXHORTAR ULISES PARA QUE LES SIGUIERA ILION LE PREGUNTA QUE HA OCURRIDO ANFIMEDONTE CUENTA QUE PRETENDIAN LA ESPOSA DE ULISES QUE ELLA LOS ENTRETUVO CON TEJER DESTEJER EL SUDARIO DE LAERTES QUE CUANDO LO ACABO PRESENTOSE ULISES DIO MUERTE LOS PRETENDIENTES XXIV AGAMENON CONSIDERA FELIZ ULISES POR TENER UNA ESPOSA VIRTUOSISIMA VATICINA QUE LOS INMORTALES INSPIRARAN LOS HOMBRES GRACIOSOS CANTOS EN LOOR DE LA DISCRETA PENELOPE XXIV ULISES LLEGA CON LOS SUYOS AL PREDIO DE LAERTES ENCAMINASE AL HUERTO SE LE SALTAN LAS LAGRIMAS AL VER LAERTES ABRUMADO POR LA VEJEZ LE HABLA BURLONAMENTE DICIENDO QUE CULTIVA BIEN EL HUERTO PERO ESTA SUCIO MAL VESTIDO LE DICE QUE EN SU PATRIA TUVO UN HUESPED QUE ERA HIJO DE LAERTES RELATA UNA FINGIDA HISTORIA SEGUN LA CUAL ES EPERITO HIJO DE AFIDANTE AL NOTAR EL DOLOR DE SU PADRE DA UN SALTO LE BESA SE DA CONOCER ENSENANDO LAERTES LA CICATRIZ DICIENDOLE CUANTOS ARBOLES LE HABIA DADO EN CIERTA OCASION LLORAN SE ABRAZAN ULISES TRANQUILIZA SU PADRE DEL TEMOR DE QUE VENGAN LOS ITACENSES ACOMETERLES PADRE E HIJO SE VAN LA CASERIA HALLAN TELEMACO AL BOYERO AL PORQUERIZO PREPARANDO LA COMIDA XXIV ULISES DIRIGE DULCES PALABRAS DOLIO SUS HIJOS ESTOS LO ABRAZAN DICE AQUEL DOLIO QUE YA PENELOPE TIENE NOTICIA DE SU REGRESO SE SIENTAN TODOS LA MESA XXIV AL SABERSE LA NOTICIA DE LA MATANZA DE LOS PRETENDIENTES LOS CIUDADANOS ACUDEN LA MANSION DE ULISES SACAN LOS MUERTOS XXIV EUPITES PADRE DE ANTINOO QUE FUE EL PRIMERO QUIEN MATO ULISES INCITA LOS ITACENSES IR CONTRA EL HEROE XXIV SALEN DEL PALACIO DE ULISES MEDONTE FEMIO EL PRIMERO DICE LOS ITACENSES QUE SIN LA VOLUNTAD DE LOS DIOSES HA REALIZADO ULISES SU HAZANA PUES ESTABA JUNTO EL UN DIOS QUE HABIA TOMADO LA FIGURA DE MENTOR XXIV MINERVA EXPLORA LA VOLUNTAD DE JUPITER ESTE LE DICE QUE CUMPLA EL PLAN QUE ELLA MISMA TRAZO PUES ULISES SE HA VENGADO DE LOS PRETENDIENTES OLVIDESE LO SUCEDIDO AMENSE LOS UNOS LOS OTROS COMO ANTES HAYA PAZ RIQUEZA EN GRAN ABUNDANCIA XXIV MANDA ULISES QUE SALGA ALGUIEN VER SI SE ACERCAN LOS ITACENSES OBEDECE UNO DE LOS HIJOS DE DOLIO VUELVE ENTRAR DICIENDO QUE YA LOS ENEMIGOS ESTAN PROXIMOS SE ARMAN TODOS LOS VARONES INCLUSO LAERTES DOLIO XXIV HUELGASE ULISES DE VER MINERVA QUE COMPARECE TRANSFIGURADA EN MENTOR EXHORTA TELEMACO QUE SEA VALIENTE XXIV ULISES TELEMACO HIEREN LOS ITACENSES CON ESPADAS LANZAS DE DOBLE FILO TODOS LOS MATARAN SI MINERVA HUBIESE SUSPENDIDO EL COMBATE XXIV ULISES SE LANZA PERSEGUIR LOS ENEMIGOS PUESTOS EN FUGA MINERVA LE EXHORTA DETENERSE EL HEROE OBEDECE GUSTOSO LA DEIDAD HACE JURAR LA PAZ ENTRAMBAS PARTES XXIV VENUS DIOSA HIJA DE JUPITER DE DIONE ESPOSA DE VULCANO HERMIONE SE LA COMPARA CON VENUS POR SU HERMOSURA IV DEPLORA HELENA EL ERROR EN QUE LA PUSO VENUS CUANDO LA LLEVO TROYA IV AYUNTOSE VENUS CON MARTE PERO EL SOL SE LO DIJO VULCANO ESTE COLOCO UNOS LAZOS FINISIMOS ALREDEDOR DE LA CAMA APRISIONO LOS AMANTES LOS DEJO EN LIBERTAD HASTA QUE NEPTUNO AFIANZO EL PAGO DE LA MULTA POR MARTE ENTONCES VENUS SE FUE CHIPRE DONDE LAS GRACIAS LA LAVARON LA UNGIERON LE PUSIERON LINDAS VESTIDURAS VIII PENELOPE SE LA COMPARA CON DIANA CON VENUS XVII XIX LA DIOSA SE LAVA EL ROSTRO CON AMBROSIA CUANDO VA AL CORO DE LAS GRACIAS XVIII CRIO LAS HIJAS DE PANDAREO CON QUESO MIEL VINO FUE AL OLIMPO PEDIR JUPITER FLORECIENTES BODAS PARA ESTAS DONCELLAS XX MANDA ULISES QUE MUERAN LAS MUJERES CULPABLES PARA QUE SE OLVIDEN DE VENUS DE CUYOS PLACERES DISFRUTABAN CON LOS PRETENDIENTES XXII VULCANO DIOS HIJO DE JUPITER DE JUNO CONSTRUYO LA CRATERA QUE MENELAO REGALA TELEMACO IV XV JUNTO CON MINERVA ENSENA LOS HOMBRES TODA CLASE DE ARTES VI FABRICO UNOS PERROS DE PLATA ORO QUE HABIA EN LA PUERTA DEL PALACIO DE ALCINOO VII TENIA POR ESPOSA VENUS COMO ESTA LA SEDUJESE MARTE APRISIONO ENTRAMBOS CULPABLES MERCED UNOS LAZOS FINISIMOS QUE PUSO EN LA CAMA LLAMO TODOS LOS DIOSES SOLTO AQUELLOS HASTA QUE NEPTUNO SALIO FIADOR DE MARTE VIII YAOLCO CIUDAD DE TESALIA DONDE VIVIO PELIAS XI YARDANO RIO DE LA ISLA DE CRETA III YASIDA HIJO DE YASIO NOMBRE PATRONIMICO DE ANFION XI DE DMETOR XVII YASION HEROE UNIOSE CON CERES EN UNA TIERRA NOVAL LABRADA TRES VECES JOVE LO MATO CON EL RAYO V YASO PADRE DE ANFION XI PADRE DE DMETOR XVII ANTIGUO REY DEL PELOPONESO XVIII ZACINTO ISLA DEL MAR JONICO TODOS SUS PROCERES PRETENDEN PENELOPE XVI XIX ESTA SITUADA CERCA DE ITACA IX DE LA MISMA PROCEDEN VEINTE PRETENDIENTES XVI ZETO HIJO DE JUPITER DE ANTIOPE HERMANO DE ANFION MARIDO DE AEDON PADRE DE ITILO ANFION ZETO FUNDARON TORREARON TEBAS XI AEDON HIJA DE PANDAREO MATO POR IMPRUDENCIA ITILO EL VASTAGO QUE TUVO DEL REY ZETO XIX INDICE DE GRABADOS PAGINASCABECERAS DE FLAXMAN MINERVA PROPONE JUPITER QUE MERCURIO SE LLEGUE CALIPSO LE MANDE QUE DESPIDA ULISES LOS PRETENDIENTES SORPRENDEN PENELOPE CUANDO ESTA DESTEJIENDO LA FINISIMA TELA NESTOR HA RECONOCIDO MINERVA AL PARTIR ESTA DIOSA LE OFRECE UN SACRIFICIO MINERVA MANDA PENELOPE UN FANTASMA SEMEJANTE IFTIMA PARA DECIRLE QUE TELEMACO VOLVERA SANO SALVO MERCURIO ENVIADO POR JUPITER MANDA CALIPSO QUE DEJE PARTIR ULISES NAUSICAA GUIA ULISES QUE SE LE HA PRESENTADO CERCA DEL RIO AL PALACIO DE ALCINOO REFIERE ULISES COMO PARTIO DE LA ISLA OGIGIA LLEGO AL PAIS DE LOS FEACIOS ULISES SE ENTRISTECE DERRAMA LAGRIMAS AL OIRLE CANTAR DEMODOCO LA TOMA DE TROYA ULISES EMBRIAGA AL CICLOPE POLIFEMO ULISES COMPADECIENDOSE DE LA SUERTE DE SUS COMPANEROS SUPLICA CIRCE QUE LES TORNE SU ANTERIOR FIGURA ULISES DESCIENDE AL ORCO POR CONSEJO DE CIRCE FIN DE CONSULTAR EL ALMA DE TIRESIAS CIRCE CON ALGUNAS DE SUS CRIADAS VA LA ORILLA DEL MAR AL ENCUENTRO DE ULISES LOS FEACIOS DEJAN EN LA PLAYA DE ITACA ULISES DORMIDO ULISES TRANSFIGURADO EN UN ANCIANO CONVERSA CON EL PORQUERIZO EUMEO CUANDO EN LA ISLA SIRIA ENVEJECEN LOS INDIVIDUOS DE UNA GENERACION APOLO DIANA LOS MATAN CON SUAVES FLECHAS MINERVA TOCA ULISES CON LA VARA LE DEVUELVE SU PRIMITIVA FIGURA ULISES AL LLEGAR SU PALACIO ES RECONOCIDO POR EL PERRO ARGOS QUE MUERE EN SEGUIDA TURBASELE EL ANIMO IRO DESPUES DE HABER PROVOCADO ULISES LOS CRIADOS LO SACAN VIVA FUERZA PARA QUE LUCHE CON EL HEROE EURICLEA RECONOCE ULISES AL TOCARLE LA CICATRIZ DEL MUSLO LAS HIJAS DE PANDAREO SON ARREBATADAS POR LAS HARPIAS PENELOPE POR INSPIRACION DE MINERVA LES SACA LOS PRETENDIENTES EL ARCO LAS SEGURES DE ULISES PROMETE CASARSE CON EL QUE VENZA EN EL CERTAMEN ULISES VALIENDOSE DEL ARCO MATA LOS PRETENDIENTES DE PENELOPE PENELOPE RECONOCE ULISES MERCURIO CONDUCE AL ORCO LAS ALMAS DE LOS PRETENDIENTES LAMINAS DE WAL PAGET VOLVIERON SOLAZARSE LOS PRETENDIENTES CON LA DANZA EL CANTOCANTO VERSOS ACOMODARONSE EN LA POPA MINERVA TELEMACO LOS MARINEROS SOLTARON LAS AMARRAS EL NAVIO ECHO ANDAR AL SOPLO DEL CEFIROCANTO II VERSOS SALVOME UNA DIOSA IDOTEA LA CUAL SALIO AL ENCUENTRO DIJOCANTO IV VERSOS DESDICHADO LLORES MAS NI CONSUMAS TU VIDA PUES DE MUY BUEN GRADO DEJARE QUE PARTASCANTO V VERSOS VAGA POR EL PONTO LE DIJO NEPTUNO HASTA QUE LLEGUES JUNTARTE CON ESOS HOMBRES ALUMNOS DE JUPITERCANTO V VERSOS YO TE IMPLORO OH REINA SEAS DIOSA MORTALCANTO VI VERSO AL ENTRAR ULISES EN LA POBLACION SE LE HIZO ENCONTRADIZA MINERVA TRANSFIGURADA EN UNA DONCELLA SE DETUVO ANTE ELCANTO VII VERSOS DEMODOCO DEJE DE TOCAR LA MELODIOSA CITARA DIJO EL REY PUES QUIZAS LO QUE CANTA LES SEA GRATO TODOS LOS OYENTESCANTO VIII VERSOS EL CICLOPE ARRANCO LA CUMBRE DE UNA MONTANA LA ARROJO DELANTE DE NUESTRA EMBARCACIONCANTO IX VERSOS CIRCE TOCANDOLOS CON SU VARITA LOS CONVIRTIO EN CERDOS LOS ENCERRO EN POCILGASCANTO X VERSOS POR QUE OH INFELIZ DEJASTE LA LUZ DEL SOL VIENES VER LOS MUERTOS ESTA REGION DESAPACIBLECANTO XI VERSOS LAMPETIA FUE DECIRLE AL SOL QUE HABIAMOS DADO MUERTE SUS VACASCANTO XII VERSOS LA DEIDAD DISIPO LA NUBE ULISES HOLGANDOSE DE RECONOCER SU PATRIA BESO EL FERTIL SUELOCANTO XIII VERSOS AL LLEGAR ULISES LA MAJADA LOS CANES LADRARON CORRIERON ENCONTRARLECANTO XIV VERSOS EUMEO FUE ACOSTARSE EN LA CONCAVIDAD DE UNA PENA DONDE DORMIAN LOS PUERCOS AL ABRIGO DEL BOREASCANTO XIV VERSOS MINERVA TOCANDO ULISES CON LA VARITA DE ORO LE CUBRIO CON UNA TUNICA UN MANTO LE AUMENTO LA TALLA EL VIGOR JUVENILCANTO XVI VERSOS ULISES COMO VIERA QUE ARGOS LE HALAGABA CON LA COLA YA TENIA FUERZAS PARA IR ENCONTRARLE ENJUGOSE UNA LAGRIMA QUE OCULTO EUMEOCANTO XVII VERSOS RETIRATE DEL UMBRAL OH VIEJO PARA QUE HAYAS DE VERTE ASIDO DE UN PIE ARRASTRADO AFUERACANTO XVIII VERSO FORJABA SU RELATO REFIRIENDO PENELOPE MUCHAS COSAS FALSAS QUE PARECIAN VERDADERASCANTO XIX VERSO VEINTE ESCLAVAS SE ENCAMINARON LA FUENTE DE AGUAS PROFUNDASCANTO XX VERSO SENTOSE PENELOPE LLORO RUIDOSAMENTE TENIENDO EN SUS RODILLAS EL ARCO DEL REYCANTO XXI VERSOS ANCIANA REGOCIJATE EN TU ESPIRITU PERO PROFIERAS EXCLAMACIONES DE ALEGRIACANTO XXII VERSO PENELOPE DERRAMANDO LAGRIMAS CORRIO ENCONTRARLE LE ECHO LOS BRAZOS AL CUELLO LE BESO LA CABEZA LE DIJOCANTO XXIII VERSOS QUIEN ERES LE PREGUNTO LAERTES DE QUE PAIS PROCEDESCANTO XXIV VERSO INDICE GENERAL PAGINAS AL LECTOR CANTO ICONCILIO DE LOS DIOSESEXHORTACION DE MINERVA TELEMACO IIAGORA DE LOS ITACENSESPARTIDA DE TELEMACO IIILO DE PILOS IVLO DE LACEDEMONIA VLA BALSA DE ULISES VILLEGADA DE ULISES AL PAIS DE LOS FEACIOS VIIENTRADA DE ULISES EN EL PALACIO DE ALCINOO VIIIPRESENTACION DE ULISES LOS FEACIOS IXRELATOS ALCINOOCICLOPEA XLO RELATIVO EOLO LOS LESTRIGONES CIRCE XIEVOCACION DE LOS MUERTOS XIILAS SIRENAS ESCILA CARIBDIS LAS VACAS DEL SOL XIIIPARTIDA DE ULISES DEL PAIS DE LOS FEACIOS SU LLEGADA ITACA XIVCONVERSACION DE ULISES CON EUMEO XVLLEGADA DE TELEMACO LA MAJADA DE EUMEO XVIRECONOCIMIENTO DE ULISES POR TELEMACO XVIIVUELTA DE TELEMACO ITACA XVIIIPUGILATO DE ULISES CON IRO XIXCOLOQUIO DE ULISES PENELOPEEL LAVATORIO RECONOCIMIENTO DE ULISES POR EURICLEA XXLO QUE PRECEDIO LA MATANZA DE LOS PRETENDIENTES XXILA PROPUESTA DEL ARCO XXIIMATANZA DE LOS PRETENDIENTES XXIIIRECONOCIMIENTO DE ULISES POR PENELOPE XXIVLAS PACES INDICE DE NOMBRES PROPIOS INDICE DE GRABADOS