ODYSSEIA ODISSEIA HOMERO COSACNAIFY ODISSEIA HOMERO TRADUCAO CHRISTIAN WERNER APRESENTACAO RICHARD P MARTIN PROEZAS E PERFORMANCES ODISSEIA TRAA FIM DE UMA VIAGEM VOLTA AO IAR DEPOIS DE VINTE ANOS DE UM GUERREIRO VETERANO E MARINHEIRO SOFREDOR ODISSEU RETOMA VIDA NA ILHA DE ITACA NA HORA CERTA SEU FILHO TELEMACO ESTA LIMIAR DA IDADE ADULTA PLENA ENQUANTO PACIENTE ESPOSA PENELOPE COMEA PERDER ESPERANAS E CONSIDERA POSSIBILIDADE DE SE CASAR OUTRA VEZ E MAIS DIFLCIL DIZER QUANDO ESSA HISTORIA COMEA PORQUE DESTINO DE ODISSEU ESTA LIGADO AO DA CIDADE DE TROIA E SOB CERTO PONTO DE VISTA DESTRUAO DE TROIA PELAS MAOS DAS TROPAS GREGAS VINGADORAS ESTAVA EM PROGRESSO HAVIA MUITO REMONTANDO ORIGEM COSMOS PODEMOS RECRIAR HISTORIA DOS MITOS GREGOS QUE MUITO PROVAVELMENTE ERAM CONHECIDOS PUBLICO DA ODISSEIA E LEMBRAR QUE JA EM TEMPOS ANTIGOS EXISTIAM VARIANTES VERSDES ATE MESMO CONTRADITORIAS DESSES ACONTECIMENTOS DENTRE FONTES DESSAS HISTORIAS ENCONTRASE TEOGONIA DE HESIODO MAIS OU MENOS CONTEMPORANEA SURGIMENTO DA POESIA HOMERICA SECULO VIII AQ E OS CHAMADOS CICLOS EPICOS DOS SECULOS VII E VI AC COMPLETANDO CICLO TROIANO DOS QUAIS CHEGARAM ATE NOS APENAS CITAOES FORTUITAS E POUCOS RESUM OS DE TRAM DE FONTES POSTERIORES GAIA TERRA FOI UMA DAS PRIMEIRAS CRIATURAS ELA TRAMOU PARA QUE SEU MARIDO IMPIEDOSAMENTE OPRESSIVO URANO CEU FOSSE DESTRONADO PELO FILHO DELES CRONO QUE POR SUA VEZ FOI DERROTADO POR ZEUS NETO FAVORITO DE GAIA NUM LEVANTE FAMILIAR DE CONSEQUENCIAS UNIVERSAIS ACONSELHADO POR SUA AVO PRIMEVA ZEUS CONQUISTOU COROA CEU AO RECRUTAR PARA SUAS BATALHAS CONTRA GERAAO MAIS VELHA DE DEUSES OS MONSTRUOSOS CEM BRAFOS QUE TINHAM SIDO PRESOS POR TIRANOS DIVINOS ANTERIORES TAMBEM ACONSELHADO POR ELA ELE ENGOLIU UMA DE SUAS PRIMEIRAS ESPOSAS METIS INTELIGENCIA ASTUTA E ASSIM ARMADO COM CAUTELOSA SABEDORIA VEIO GARANTIR QUE SEU PROPRIO REINO JAMAIS FOSSE DERRUBADO EM VEZDE GERAR UM FILHO MAIS FORTE QUE ZEUS COMO HAVIA SIDO PREDITO METIS DESAMPARADA FICOU BEM ENCOLHIDA DENTRO MARIDO E DEU LUZ ATENA QUE NASCEU JA ADULTA DA CABEA CHEFE DOS DEUSES ZEUS PORTANTO TINHA UMA DIVIDA COM GAIA COM PASSAR TEMPO E RECLAMAFOES DELA FARDO SEMPRE MAIS PESADO DOS HOMENS ZEUS CONCEBEU UMA GUERRA DE GRANDES PROPOSES PARA DIMINUIR POPULAAO MUNDIAL E ALIVIAR CARGA DA SUPERFICIE DA TERRA CONDIOES PARA GUERRA DE TROIA BROTARAM DE OUTRO CASAMENTO DIVINO IMPEDIDO URN CASAMENTO DE HEROI UM ESTUPRO E UM SEQUESTRO ZEUS DESEJAVA NINFA TETIS UMA DAS CINQUENTA FILHAS DEUS MAR NEREU MAS AINDA UMA VEZ TEMIA QUE CASO ESPOSASSE UMA DEUSA PODEROSA UM FILHO SEU PODERIA ACABAR QUERENDO SUBSTITUILO ENTAO INVENTOU UM MOTIVO PARA CASAR TETIS COM UM MORTAL INOCENTE PELEU COMO RECOMPENSA PELO COMPORTAMENTO DEVOTO DESSE HEROI FOI NESSE CASAMENTO ESPLENDIDO QUE DISCORDIA ERIS QUE NAO FORA CONVIDADA LANOU ENTRE OS CONVIVAS UMA MAA COM INSCRIAO KALLISTEF MAIS BELA ATENA HERA E AFRODITE RECLAMARAM PREMIO PAI DOS DEUSES ESCOLHEU UM TROIANO CHAMADO PARIS PARA JULGAR QUESTAO REJEITANDO PROMESSAS DAS OUTRAS DUAS DEUSAS ELE ESCOLHEU AFRODITE E RECEBEU HELENA COMO RECOMPENSA AMAE DELA LEDA FORA CERTA VEZPOSSUIDA FORA POR ZEUS DISFARADO DE CISNE NASCIMENTO ESDRUXULO DE HELENA DE DENTRO DE UM OVO PRESSAGIAVA UMA VIDA NOTAVEL QUANDO ATINGIU IDADE DE CASAR TINHA PRETENDENTES EM TODOS OS CANTOS DA GRECIA MENELAU FILHO DE ATREU FOI ELEITO E PARA EVITAR QUALQUER CONFLITO TODOS OS PRETENDENTES SE VIRAM FORADOS UM JURAMENTO DE QUE TUDO FARIAM PARA LIBERTAR HELENA SE ALGUM DIA ELA ESTIVESSE EM PERIGO ODISSEU DE ITACA QUE HAVIA SUGERIDO ESSA IDEIA FOI POR SUA VEZAJUDADO PELO PAI MORTAL DE HELENA TINDARO QUE CONVENCEU SUA SOBRINHA PRIMAIRMA DE HELENA SE CASAR COM OJOVEM NOME DELA ERA PENELOPE POR FIM FUGA OU RAPTO COMO PREFEREM ALGUNS E SUAS CONSEQUENCIAS NUMA VISITA MENELAU NA RESIDENCIA CASAL EM ESPARTA PARIS ENCONTROU RECOMPENSA PROMETIDA CONCURSO DE BELEZA E COM AJUDA DOS DONS SEDUTORES DE AFRODITE CONVENCEU HELENA PARTIR COM ELE PARA TROIA PONDO ASSIM EM MOVIMENTO MOBILIZAAO DAS FORAS GREGAS PARA PUNIR TRANSGRESSOR OCIDENTAL NESSA EPOCA ODISSEU E PENELOPE ACABAVAM DE SER ABENOADOS COM PRIMOGENITO E PAI ORGULHOSO RELUTANTE EM DEIXAR ITACA PARA RECUPERAR HELENA TENTOU ENGANAR GRUPO QUE RECRUTAVA LIDERADO POR AGAMEMNON IRMAO MARIDO OFENDIDO USANDO UM GORRO DE PELE EMBORA FOSSE VERAO ELE COMEU ARAR SEU CAMPO COM UMA COMBINAAO RIDICULA DE BOI E CAVALO MAS UM DOS VISITANTES PALAMEDES RECUSOUSE ACREDITAR QUE ODISSEU FOSSE LOUCO PEGOU TELEMACO FILHINHO DE ODISSEU DOS BRAS DA BABA E COLOCOU CRIANA NA FRENTE ARADO QUANDO ODISSEU DESVIOU PARA NAO MACHUCAR FILHO MENTIRA SE REVELOU LA FOI ELE PARA GUERRA CERCO DE TROIA DUROU DEZ ANOS DEPOIS DA MORTE DE AQUILES E HEITOR OS PRINCIPALS GUERREIROS DE AMBOS OS LADOS OS GREGOS SEGUIRAM CONSELHO DE ODISSEU E SE INFILTRARAM NA CIDADE ESCONDIDOS DENTRO CAVALO DE TROIA CAOS E MATANA SUBSEQUENTES ESSE ATAQUE SURPRESA TROIA CAIU MAS TEMPLO DE ATENA DENTRO DA CIDADELA FOI VIOLADO POR INVASORES CONSEQUENTEMENTE IRA DA DEUSA PERSEGUIRIA OS GREGOS INCLUSIVE ODISSEU NA VOLTA PARA CASA REGRESSO DOS HEROIS FOI NARRADO NUMA EPOPEIA ANTIGA HOJE PERDIDA CHAMADA NOSTOI ALGO SEMELHANTE ESSE POEMA DEVE SER CORPO DA CANAO DE FEMIO BARDO LOCAL DE ITACA QUE CANTA PARA OS PRETENDENTES SOBRE JORNADA DE VOLTA AO LAR DOS GREGOS FATIGADOS PELA GUERRA SS MAIS ADIANTE DENTRO DA PROPRIA ODISSEIA TOMAMOS CONHECIMENTO DA VOLTA BEMSUCEDIDA DE NESTOR SS DE COMO AJAX PERDEU VIDA DA VIAGEM TRISTEMENTE RETARDADA DE MENELAU E RETORNO FATAL DE SEU IRMAO AGAMEMNON TUDO EM SS CADA UMA DESSAS HISTORIAS CONTRASTA COM NARRATIVA GERAL DA VIAGEM DE ODISSEU EM PARTICULAR HISTORIA DE AGAMEMNON ESFAQUEADO PELA ESPOSA E PELO AMANTE DELA LOGO DEPOIS RETORNO TRIUNFAL E UMA ADVERTENCIA EM FORMA DE ALERTA EXPLICITO PARA ODISSEU DA PARTE DE NINGUEM MENOS QUE PROPRIA VITIMA MUNDO INFERIOR SS E AI TAMBEM QUE ODISSEU ENCONTRA GRANDE AQUILES QUE ESCOLHEU UMA VIDA BREVE DE GLORIA EM VEZDE UMA VIDA LONGA DE VOLTA SUA TERRA NATAL EM OUTRO NOTAVEL CONTRASTE COM DESTINO DE SEUS ANTIGOS CAMARADAS DE COMBATE ODISSEU CONSEGUE AO MESMO TEMPO FAMA E RETORNO EM SEGURANSA PARA OBTER GLORIA JUSTAMENTE ATRAVES DA VOLTA PARA CASA NISSO ELE ENFIM SE DA MELHOR QUE SEU VELHO RIVAL HEROICO SEU REGRESSO ITACA ENVOLVE MAIS UMA BATALHA DESSA VEZ CONTRA J OVENS OS ARROGANTES PRETENDENTES DE PENELOPE ALGUNS DELES SEUS CONTERRANEOS DA ILHA REEMPOSSADO EM SEU DEVIDO LUGAR LADEADO PELO FILHO E PELO PAI ODISSEU E UM MODELO DE INTELIGENCIA CUIDADO E PERSEVERANA E SUPRASSUMO SOBREVIVENTE MESMO EM TEMPOS ANTIGOS RECONHECIASE QUE POESIA HOMERICA APRESENTAVA ESSAS HISTORIAS DA GUERRA DE TROIA DE UMA FORMA SINGULAR SECULO IV AC ARISTOTELES EM SEU ESTUDO SOBRE HISTORIA E TEORIA LITERRIA POETICA B OBSERVOU QUE HOMERO TOMA APENAS UMA PORAO DA HISTORIA E FAZ USO DE MUITOS EPISODIOS COMO CATALOGO DAS NAUS E OUTROS POR MEIO DOS QUAIS DIVERSIFICA SUA POESIA MAS OS OUTROS FAZEM SEUS POEMAS SOBRE UMA PESSOA UM TEMPO UMA AO COM MUITAS PARTES DA FORMA COMO CRIADOR DOS CANTOS CIPRIOS E DA PEQUENA ILIADA FEZ EM RESUMO EPOPEIA HOMERICA TERN UNIDADE ENQUANTO OS POEMAS CICLICOS SAO APENAS COLETANEAS DESSA FORMA ILIADA FOCALIZA APENAS ALGUNS DIAS ULTIMO ANO DA GUERRA DISPUTA ENTRE AGAMEMNON E SEU MELHOR GUERREIRO AQUILES COM SEUS RESULTADOS DEVASTADORES FINAL POEM AQUILES AINDA ESTA VIVO CAVALO E QUEDA DE TROIA AINDA ESTAO FUTURO POETA SE ESQUIVA DE CONTAR SAGA TODA MESMO ASSIM GRAAS ALUSOES ARTISTICAS E JUSTAPOSIOES DENTRO DA HISTORIA FORA EMOCIONAL DOS ACONTECIMENTOS FUTUROS MARCA CADA PARTE POEMA ATRAVES DA MORTE DE HEITOR PELA MAO DE AQUILES E DA INCURSAO DE PRIAMO AO CAMPO GREGO PARA RECUPERAR CORPO DE SEU FILHO SENTIMOS NIVEL MAIS PESSOA PATHOS DE UMA CIDADE CONDENADA SE ILIADA E UMA SAGA LONGA CONDENSADA DE MODO BRILHANTE E INTENSAMENTE FOCADA ODISSEIA E MAIS UMA HISTORIA SIMPLES CONTADA ATRAVES DE UMA NARRATIVA COMPLEXA AHISTORIA HEROI DA GUERRA DE TROIA COMEA QUASE FINAL DE SEU RETORNO USA FLASHBACKS PARA DAR CONTA DOS ANOS ANTERIORES SINCRONIZA DIVERSAS SUBTRAMAS E APRESENTA EVENTOS IMPORTANTES SOBRETUDO POR LEMBRANAS E PELA PERSPECTIVA DE OUTROS EM OUTRAS PALAVRAS JA COME DA LITERATURA OCIDENTAL QUASE TODOS OS RECURSOS CINEMA E ROMANCE MODERNOS SAO EXPOSTOS COM MAESTRIA OS QUATRO PRIMEIROS CANTOS DIVISAO TRADICIONAL TAMANHO DE CAPITULOS POEMA SAO UM BELO EXEMPLO DA NARRAAO INDIRETA DA ODISSEIA NAO ENCONTRAMOS HEROI ATE MESMO SEU NOME E POSTERGADO EM ALGUNS VERSOS UMA VEZQUE POEMA COMEA COM UM SUBSTANTIVO GENERICO VARAO NARRA MUSA MUITAS VIAS QUE MUITO VAGOU APOS DEVASTAR SACRA CIDADE DE TROIA EM VEZ DE POR ODISSEU EM CENA DESDE INICIO POETA ENGENHOSAMENTE NOS FAZOUVIR OUTRAS PESSOAS FALANDO SOBRE HEROI OS DEUSES SUA ESPOSA E FILHO AQUELES QUE SENTEM SAUDADE DELE E AQUELES QUE QUEREM TOMAR SEU LUGAR SEU IMPACTO GANHA MAIS FORA EXATAMENTE PELA AUSENCIA E NATURAL QUE AUSENCIA DE ODISSEU TENHA MAIOR EFEITO SOBRE SEU FILHO AGORA COM VINTE ANOS TELEMACO CONHECE PAI PELO QUE CONTAM OS OUTROS MAS ENTAO E POSTO EM AO PARA SAIR E DESCOBRIR DESTINO DE ODISSEU POR MEIO DE UMA COMBINAIAO DE FATORES OS PIANOS DOS DEUSES CRESCENTE IMPACIENCIA DOS PRETENDENTES DE SUA MAE E SUA PROPRIA MAIORIDADE HISTORIA DE SUA PROPRIA ODISSEIA EM MINIATURA VISITANDO OS HEROIS QUE VOLTARAM NESTOR E MENELAU E TRAMA DOS PRETENDENTES PARA ASSASSINALO OCUPAM OS QUATRO PRIMEIROS CANTOS ELES SAO CHAMADOS DE TELEMAQUIA OU HISTORIA DE TELEMACO MUITOS CRITICOS SECULO XIX AFIRMARAM QUE INTEGRAVAM OUTRA COMPOSIAO AGREGADA COM POUCA ELEGANCIA AO POEMA MAS ESCASSAS INCOERENCIAS QUE EMBASARAM ESSA CRITICA SAO EM MUITO SUPERADAS PELAS RESSONANCIAS RICAS E SIGNIFICATIVAS QUE EMERGEM QUANDO LEMOS ODISSEIA DESSA FORMA COMO HISTORIA DE UM PAI SENDO AOS POUCOS CONHECIDO POR SEU FILHO TELEMACO DENTRO POEMA E COMO NOS FORA DELE UM PUBLICO PARA PASSADO HEROICO ESSA ESTRATEGIA POETICA NAO E ATRAENTE E PERSUASIVA EM TERMOS DE NARRATIVA COMO TAMBEM E CULTURALMENTE ADEQUADA UMA VEZQUE NOOES GREGAS DE PROEZA HEROICA E HISTORIA FAMILIAR SEMPRE LIGARAM INTIMAMENTE FAMA DE PAI E FILHO NOS MELHORES CASOS OS FILHOS DAO CONTINUIDADE FAMA DE SEUS PAIS OU AUMENTAM ODISSEU NA ILIADA CHEGA FAZER JURAMENTOS COM EXPRESSAO COMO PAI DE TELEMACO AFIRMATIVA DE QUE AQUILO QUE DIZE TAO VERDADEIRO QUANTO SUA PATERNIDADE PROPRIO NOME TELEMACO QUE QUER DIZER LUTAR LONGE E UM ADJETIVO APLICAVEL ODISSEU TANTO COM SENTIDO DE ARQUEIRO COMO DE GUERRE IRO QUE LUTOU NA DISTANTE TROIA MAIS QUE UM EPITETO ADEQUADO AO FILHO E COMO SE IDENTIDADE FILHO DEPENDESSE DAS AOES PAI IRONICAMENTE ODISSEIA COMEFA COM TELEMACO DUVIDANDO QUE ODISSEU SEJA DE FATO SEU PAI UM DOS OBJETIVOS PRINCIPAL DOS QUATRO PRIMEIROS CANTOS E MOSTRAR QUE JOVEM MERECE SER RECONHECIDO PELOS OUTROS COMO FILHO DE ODISSEU E QUE POSSUI QUALIDADES INATAS QUE GARANTEM SEU LAO PATERNO NOS QUATRO CANTOS SEGUINTES POEMA CENTRO DA ATENAO E ODISSEU ENTAO NA ULTIMA PARTE DE SUA VIAGEM AO MESMO TEMPO QUE TELEMACO SAI EM VIAGEM PARA SABER PAI PERDIDO HEROI COMEA SE APROXIMAR DE ITACA AAUSENCIA FORTUITA DE POSEIDON DA COMPANHIA DOS DEUSES PERMITE QUE ATENA COM CONSENTIMENTO DE ZEUS LIBERTE SEU FAVORITO DA ILHA DE CALIPSO ONDE ESTAVA PRESO HAVIA SETE ANOS CADA DIA MAIS INQUIETO EMBORA JUNTO DA LA NINFA OUTRO NAUFRAGIO LEVAO TERRA DOS FEACIOS ONDE ODISSEU REVELANDO SUA IDENTIDADE CONVENCE FAMILIA REAL LHE DAR RETORNO SEGURO PARA CASA POEMA DEIXA CLARO QUE ODISSEU FASCINA SUA PLATEIA COM UMA PERFORMANCE MUITO PARECIDA COM POETA REAL DA COMPOSIAO ELE ASSUME POSTO DE NARRADOR NOS QUATRO CANTOS SEGUINTES TECENDO UMA HISTORIA DE SUAS AVENTURAS ANTERIORES QUE INCLUI CANIBAIS GIGANTES FEITICEIRAS SEDUTORAS MONSTROS MARINHOS VIDENTES MAGICOS FANTASMAS INGREDIENTES ETERNOS DAS HISTORIAS POPULARES DE TODO MUNDO ELABORADAS NUMA NARRATIVA AUTOBIOGRAFICA AO MESMO TEMPO QUE OFERECE HISTORIA DESSE MARINHEIRO ODISSEIA SE DA AO TRABALHO DE CONSTRUIR UM PANO DE FUNDO CUIDADOSAMENTE NUANADO DA HISTORIA QUE ODISSEU RELATA NOS VEMOS ENCANTANDO PLATE IA OUVIMOS REAOES DESSA MESMA PLATEIA INCLUSIVE QUANDO DECIDEM COBRIR NARRADOR DE MAIS PRESENTES PODEMOS IMAGINAR BARDO LOCAL DEMODOCO ESCUTANDO COM ADMIRAGAO E INVEJA ESSE CONTADOR DE HISTORIAS RECEMCHEGADO TUDO ISSO CERTAMENTE PARA INDICAR COMO NOS COMO PLATEIA DEVEMOS RECEBER E APRECIAR TODA ODISSEIA HOMERICA MAIS ELETRIZANTE AINDA AO COLOCAR ASSIM ODISSEIA DAS AVENTURAS HEROI POETA NOS PROVOCA COM IDEIA DE QUE TODA AUTOBIOGRAFIA PODE SER ELA PROPRIA EM GRANDE PARTE UMA CONVENIENTE FICAO PODEMOS NOTAR SEQUENCIA E FORMA DESSA PERFORMANCE SOLICITADA HISTORIAS QUE ODISSEU RELATA PARECEM SEGUIR UM RITMO DE DOIS EPISODIOS CURTOS DEPOIS UM LONGO MAIS DOIS CURTOS SEGUIDOS DE OUTRO LONGO POR EXEMPLO OS CICONES E OS LOTOFAGOS SAO DESCRITOS EM MENOS DE QUARENTA VERSOS ELES LEVAM AO EPISODIO DOS CIC LOPES QUE FAZUSO DE DEZ VEZES MAIS VERSOS PARA SER NARRADO MESMO ACONTECE COM TRES HISTORIAS SEGUINTES EOLO CURTA LESTRIGOES CURTA E CIRCE LONGA EFEITO E QUASE DE UMA MARE OUTRO PADRAO SUTIL VEM TONA SE CONSIDERARMOS OS EPISODIOS EM TERM OS SOCIAIS CADA LUGAR QUE ODISSEU DESCREVE REPRESENTA UMA VARIANTE DAS CONDOES DE VIDA GREGA SE DEFINIRMOS ESSAS CONDOES BASICAS COMO UMA FAMILIA ESTENDIDA ADORAO DOS DEUSES CENTRADA SACRIFICIO E AGRICULTURA OS CIC LOPES SAO UM EXEMPLO NEGATIVO ELES NAO TERN AGRICULTURA NAO TERN LEIS VIVEM SOZINHOS E NAO SE REUNEM EM ASSEMBLEIAS DEFICIENCIAS INCONCEBIVEIS NUMA COMUNIDADE GREGA OS LOTOFAGOS VIVEM APARENTEMENTE SEM MEMORIA CULTURAL E LEVAM OS OUTROS ESQUECER CIRCE E CALIPSO DEUSAS QUE VIVEM SOZINHAS ENCARNAM QUE E IMPOSSIVEL PARA MULHERES GREGAS OS FEACIOS POR OUTRO LADO PARECEM QUASE GREGOS ADORAM DEUSES RECONHECIVEIS GOSTAM DE ES DE BARDOS E APRECIAM ESPORTES COMPETITIVOS MAS ESTAO DISTANTES DE QUALQUER CONFLITO REAL E PORTANTO HEROISMO UMA LIMITAAO IMPENSAVEL PARA COMUNIDADES ANTIGAS DE VERDADE EM RESUMO HISTORIA DE ODISSEU FUNCIONA COMO UMA LENTE DE AUMENTO OU VARA DE MEDIDA ESCLARECENDO E MARCANDO QUE SE DEFINE COMO HUMANO E HELENICO NAO SURPREENDE QUE PESQUISADORES EM BUSCA DE ALEGORIAS TENHAM ENCONTRADO TERRENO FERTIL NESSAS HISTORIAS UMA LINHA DE LEITURA JA CORRENTE SECULO II AC VIA JORNADA DE ODISSEU COMO SAGA DE TODA ALMA SEDUZIDA PELOS BENS E PREOCUPAOES MUNDO MAS RESISTINDO AO CANTO DAS SEREIAS E CONSEGUINDO VOLTAR SEU LAR CELESTIAL EM TEMPOS MAIS RECENTES CRITICA PSICANALITICA DESCOBRIU FANTASIAS ORALNARCISISTAS OU SIMBOLISMO FALICO SUBJACENTES AO TEXTO AMBIENTALISTAS PODEM LER NESSAS HISTORIAS CONSIDERAPOES SOBRE USO E ABUSO DOS RECURSOS NATURAIS OU UMA CELEBRAAO DA TECNOLOGIA TAL FLEXIBILIDADE E INFINITA RIQUEZA DE SUGESTOES MANTEM HISTORIA VIVA PIANO COGNITIVO PODEMOS TRAAR UMA CURVA ASCENDENTE AO LONGO DAS RECORDAOES DE ODISSEU E ENCONTRAR HISTORIA DA EDUCAAO DE SEU SELVAGEM ATAQUE PIRATA INICIAL AOS CICONES ATE SEU DESAFIO QUASE FATAL AO CICLOPE ENRAIVECIDO E MAIS ALEM ATE SUA PERDA DE TUDO QUE TINHA FICAMOS COM SENSAAO DE QUE HEROI DE FATO APRENDE ELE SE TORNOU MAIS SABIO E NOS TORNA MAIS SBIOS POR TER VISTO CIDADES E CAPTADO MODO DE PENSAR DE MUITOS POVOS EM BORA SEJA UM MOMENTO CENTRAL E UM TOURDE FORCE DENTRO DA ODISSEIA HISTORIA DE AVENTURA CONTADA CANTO ATE NA VOZDO PROPRIO HEROI SURPREENDENTEMENTE CONSTITUI APENAS UM SEXTO DE TODO POEMA ENTANTO CRISTALIZA E DESTILA TODOS OS TEMAS PRINCIPALS RESTO DA COMPOSIAO MUITOS DOS TEMAS PRESENTES NA HISTORIA DAS AVENTURAS SAO DESENVOLVIDOS CANTO ATE ABRANGENDO TEMPO DA VOLTA DE ODISSEU ITACA ATRAVES DOS ENCONTROS COM SEUS CRIADOS E SEU FILHO DA LUTA COM OS PRETENDENTES E TAO ESPERADO ENCONTRO COM ESPOSA POR EXEMPLO POR ESSA HISTORIA FICAMOS SABENDO COMO ODISSEU COM FREQUENCIA DEPAROU COM TERRAS DESCONHECIDAS E ENTAO VEMOS FAZENDO MAIS UMA DESSAS DESCOBERTAS MAS DE SUA PROPRIA ILHA OUVIMOS RESPEITO PODER DE MULHERES ESPERTAS CIRCE E CALIPSO SOBRETUDO ENQUANTO NA HISTORIA EXTERNA CONTADA PELO POETA MAIS QUE PELO PROPRIO ODISSEU TAIS FIGURAS FORTES SAO RECORRENTES NA FORMA DE PENELOPE CLITEMNESTRA E RAINHA FEACIA ARETE TALVEZ NAO POR COINCIDENCIA PARTE DA PLATEIA DA HISTORIA CONTADA POR ODISSEU ACOMIDA SEMPRE REAPARECE CONSTITUINDO PROBLEMAS DISTINTOS NOS EPISODIOS DOS LOTOFAGOS CICLOPE DE CIRCE E EM ESPECIAL GADO DE SOL ENQUANTO NARRATIVA EXTERNA LIDA COM APETITE INSACIAVEL DOS PRETENDENTES DE FATO POEMA TOMA CUIDADO DE TRASAR UM PARALELO ENTRE TRIPULASAO INCONSEQUENTE DE ODISSEU QUE DEVOROU OS REBANHOS DE SOL E OS ARROGANTES PRETENDENTES EXAURINDO EM CONTINUA AO ESTOQUE DOMESTICO HEROI AUSENTE ASSIM COMO DEUS DESTRUIU OS HOMENS DE ODISSEU GUERREIRO QUE VOLTA PARA CASA ELIMINARA OS INTRUSOS DISFARCE ASTUCIA USO INTELIGENTE DA PERSUASAO TUDO ISSO OCORRE NA HISTORIA INTERNA DOS CANTOS E ENCONTRA RESSONANCIA NA NARRATIVA MAIS GERAL E POR MEIO EPISODIO CICLOPE SEU COMPORTAMENTO SUA CEGUEIRA CUMPRIMENTO DA MALDIFAO DE POSEIDON NOSSA ATENFJAO E ATRAIDA ESPECIALMENTE PARA NOFAO DE JUSTI COSMICA ESSE CONCEITO CHAMADO DIKE ABRANGIA PARA OS GREGOS ARCAICOS NAO APENAS FUNCIONAMENTO ADEQUADO DA NATUREZA MAS DE TODO TIPO DE RELAES SOCIAIS SOBRETUDO TRATAMENTO ADEQUADO AOS ESTRANGEIROS NAO POR ACASO HISTORIA GERAL FAZDE ODISSEU UM VINGADOR QUE RETORNA UM ALGOZDA HUBRIS DOS PRETENDENTES UM RESTAURADOR DA ORDEM E UM REPRESENTANTE DA JUSTI DE ZEUS NA TERRA SOB ESSA LUZ PERFORMANCE PERMANENTE DA ODISSEIA NA CULTURA GREGA REPRESENTOU NAO APENAS UM ENTRETENIMENTO DURADOURO MAS UMA CONSTANTE REAFIRMA AO DE VALORES CULTURAIS DA BUSCA DE UMA SOCIEDADE POR SUA ESTABILIDADE E INTEIREZA POEMA E POETA DE ONDE VEM NOSSA ODISSEIA TALVEZ SEJ UTIL RECUAR TEMPO TRADUOES CONTEMPORANEAS EPICO PARTEM DE UMA EDIO GREGA POEMA BASTANTE PADRONIZADA QUASE SEMPRE TEXTO DA OXFORD CLASSICAL EDITADO POR THOMAS W ALLEN ED TEXTO DE ALLEN PARA OXFORD FOI RESULTADO DE MUITOS ANOS DE MINUCIOSO TRABALHO EDITORIAL COMO ESSE PROCESSO E CRUCIAL PARA ESTABELECIMENTO DE UM TEXTO POREM INVISIVEL PARA MAIORIA DOS LEITORES VALE PENA DE LINEAR AQUI BASICO ECHOES IMPRESSAS DA ODISSEIA ESTAO EM CIRCULAAO DESDE QUANDO DEMETRIUS CHALCONDYLES UM GREGO QUE VIVIA EM FLORENA USOU PELA PRIMEIRA VEZA TECNOLOGIA RECEMINVENTADA TIPO MOVEL PARA CONSERVAR JOIA DA LITERATURA GREGA ANTIGA POESIA HOMERICA ATE ENTAO OS POEMAS HAVIAM SIDO TRANSMITIDOS APENAS EM MANUSCRITOS LABORIOSAMENTE COPIADOS MAO CERCA DE CEM DESSES MANUSCRITOS DA ODISSEIA CHEGARAM AOS NOSSOS DIAS ESTAO GUARDADOS EM BIBLIOTECAS POR TODA EUROPA DE MOSCOU BRATISLAVA E VIENA ATE FLORENA VENEZA CIDADE VATICANO MUNIQUE PARIS E OXFORD E SUAS DATAS VARIAM SECULO X DC AO SECULO XVI ALGUNS TENDO SIDO PRODUZIDOS MESMO DEPOIS SURGIMENTO DA IMPRENSA TODOS ESSES EXEMPLARES SAO BASEADOS EM MANUSCRITOS AINDA MAIS ANTIGOS QUE NAO EXISTEM MAIS COPIADOS POR ESCRIBAS PROFISSIONAIS GREGOS MONGES OU LEIGOS EM PERGAMINHO OU EM SECULOS MAIS RECENTES EM PAPEL UM ESTUDIOSO QUE BUSQUE UMA VISAO MAIS COMPLETA DE UMA OBRA ANTIGA NAO PODE CONFIAR APENAS NAS PRIMEIRAS EDOES IMPRESSAS MAS DEVE RECUAR TANTO QUANTO POSSIVEL NA DIREAO DA ANTIGUIDADE PORTANTO ATRAVES DE UMA COMBINAAO DE VIAGEM E PESQUISA USO DE FACSIMILES OU RELATOS DE OUTROS ESTUDIOSOS ALLEN FEZ UMA COLAAO OU TRABALHO DE COMPARAAO SISTEMATICA PALAVRA POR PALAVRA DE TODOS OS MANUSCRITOS QUE CONSEGUIU ENCONTRAR QUANDO EXISTEM TANTOS MANUSCRITOS GREGOS COMO E CASO DE FLOMERO E MAIS AINDA NOVO TESTAMENTO HA VARIAOES INEVITAVEIS DE UM PARA OUTRO ISSO SE DA POR CAUSA DA ATIVIDADE GENERALIZADA DE FAZER COPIAS E COPIAS DE COPIAS DE UM TEXTO POPULAR TEMPO ANTERIOR IMPRENSA TODO ESCRIBA PODIA COMETER ERROS MESMO QUANDO MUITO ATENTO VEZES OS PROPRIOS ESCRIBAS ESTAVAM FAZENDO COTEJOS E COMBINANDO INFORMAAO DE DIVERSOS MANUSCRITOS SEU DISPOR DIFERENAS SAO EM GERAL PEQUENAS MUDANAS DE TEMPO VERBAL USO DE UMA FORMA MAIS ANTIGA OU MAIS RECENTE DE UM ADJETIVO VARIAOES DE GRAFIA E ASSIM POR DIANTE EM DIVERSOS DOCUMENTOS POREM VARIAAO TEM DE FATO UM IMPACTO SOBRE TRAM OU CARACTERIZAO ALLEN EDITOU TUDO AQUILO EM QUE OS MANUSCRITOS COINCIDIAM E ONDE ERAM DISCORDANTES ESCOLHEU MELHOR VARIANTE BASEADO QUE SABIA SOBRE USO ESTILO METRICA E DICAO POETICA HOMERICA E EVIDENTE QUE OS EDITORES DA ODISSEIA E ELES TEM SIDO MUITOS AO LONGO DOS SECULOS NUNCA CONCORDAM QUANDO SE TRATA DE ESCOLHAS INDIVIDUALS QUANTO MELHOR LEITURA VEZES PARA DAR SENTIDO UMA PASSAGEM UM EDITOR RECOMENDA UMA PALAVRA OU FORMA GREGA QUE NAO OCORRE EM NENHUM MANUSCRITO CHAMADA EMENDA POR ISSO EDIOES ACADEMICAS COMO DE ALLEN SEMPRE REGISTRAM AO PE DE CADA PAGINA VARIANTES E UMA SELEFAO DAS ESPECULAOES DE EDITORES ANTERIORES DOIS EXEMPLOS PODEM ESCLARECER PROCESSO QUANDO TRIPULAQAO DE ODISSEU ESTAVA ESPERANDO CICLOPE VOLTAR SUA CAVERNA ACENDERAM UMA FOGUEIRA TENDO LA ACESO FOGO E FIZERAM OFERENDAS AOS DEUSES SACRIFICAMOS CONFORME MCCRORIE TRADUZO VERBO GREGO ETHUSAMEN SEGUINDO TEXTO DE ALLEN PARA OD EDITOR DA OXFORD ESCOLHEU SEGUIR VERSOES EM QUE ESSE VERBO APARECE CARACTERIZANDO OS HOMENS COMO CUMPRIDORES RITO MAS COMO CONSTA EM SUAS NOTAS DIVERSOS MANUSCRITOS INCLUSIVE UM EXEMPLAR SECULO XI DE FLORENA ATRIBUEM AO VERBO GREGO DESSE VERSO SENTIDO DE RESTOS APENAS EM LUGAR DE SACRIFICIO DETALHE PEQUENO MAS QUE DA COLORIDO PASSAGEM VEZES PARTE QUESTIONADA SE ESTENDE POR VARIOS VERSOS COMO VERSO CANTO QUANDO ATENA ESTA DESCREVENDO COMO IRA INSPIRAR TELEMACO VIAJAR EM BUSCA DE NOTICIAS PAI VERSO EM TODOS OS MANUSCRITOS DIZ VOU ENVIALO ESPARTA E ARENOSA PILOS ENTANTO EM UMA FAMIHA BASTANTE GRANDE DE MANUSCRITOS CORRELATOS SEGUEMSE DOIS OUTROS VERSOS E DALI PARA CRETA ATE SENHOR IDOMENEU QUE FOI SEGUNDO VOLTAR DE TROIA EVIDENTE MENTE ESSES VERSOS NAO CORRESPONDEM TRAMA POEMA NA FORMA COMO NOS CHEGOU EM NENHUM MANUSCRITO TELEMACO NUNCA VAI CRETA MAS ELES NOS PROVOCAM COM POSSIBILIDADE DE TER EXISTIDO UMA VERSAO MAIS ELABORADA DA TELEMAQUIA CANTOS POEMA ESSA FOI TRAJETORIA DA ODISSEIA ATE IDADE MEDIA DEVEMOS TER PRESENTE QUE PERIODO ANTERIOR AO RENASCIMENTO ITALIANO SERIA DIFICIL QUE ALGUEM NA EUROPA OCIDENTAL CONHECESSE POEMA DIRETAMENTE CASO SE FIZESSE ALGUMA IDEIA DE QUERN ERA ODISSEU ERA POR MEIO DE CITAOES LATINAS FINAL DA ANTIGUIDADE OU PELA MENIJAO DE ULISSES VERSAO LATINA DE SEU NOME POR AUTORES ROMANOS BEM CONHECIDOS COMO VIRGILIO OVIDIO SENECA HORACIO E ESTACIO DANTE QUE COLOCA ULISSES CANTO DE SEU INFERNO CONHECIA OU INVENTOU UMA VERSAO DESTINO HEROI TOTALMENTE DISTANCIADA DA TRADIGAO GREGA E COM CERTEZA AUSENTE EM HOMERO APARTIR SECULO XIII E EM ESPECIAL DEPOIS DA QUEDA DE CONSTANTINOPLA PARA OS TURCOS OTOMANOS EM UMA CORRENTE DE ESTUDIOSOS GREGOS EMIGROU PARA ITALIA E SE VOLTOU PARA OCIDENTE E PLAUSIVEL QUE DEVAMOS DISSEMINAO DE MANUSCRITOS DA ODISSEIA ESSES INTELECTUAIS BIZANTINOS E SEUS ALUNOS NEGOCIO DE COPIAR POEMA DE GERAAO EM GERAAO HAVIA SE EXPANDIDO TERRAS FALANTES GREGO AINDA NA ANTIGUIDADE OS MANUSCRITOS MEDIEVAIS EM QUE TRADUAO DE MCCRORIE SE APOIA EM ULTIMA ANALISE SAO UM PONTO FINAL MAS COMO PODEMOS DIZER SE ESSES MANUSCRITOS MAIS ANTIGO E DE CERCA ANO DE NOSSA ERA PRESERVAM COM ALGUMA EXATIDAO QUE OS GREGOS DA ERA ARCAICA SABIAM DA ODISSEIA DE HOMERO AINDA HOJE QUESTAO SUSCITA ACALORADOS DEBATES ENTRE HOMERISTAS UMA ESPECIE DE FONTE DE CONTROLE NOSSO TEXTO VEIO DE FATO CRESCENDO AO LONGO SECULO PASSADO ESPECIFICAMENTE FRAGMENTOS DE PAPIROS ISTO E PEDAOS DE ROLOS ANTIGOS MATERIAL DE ESCRITA BARATO E ENTAO MUITO DIFUNDIDO FEITO DE FIBRAS VEGETAIS PAPIRO APODRECE NA MAIORIA DOS CLIMAS FELIZMENTE AREIA SECA EGITO QUE ERA UM CENTRO DE CULTURA GRECOROMANA PRESERVA ESSE MATERIAL EXPLORADORES SECULO XIX DESCOBRIRAM GRANDE QUANTIDADE DE PAPIROS EM GERAL RASGADOS EM ANTIGOS MONTUROS DE LIXO OU USADOS PARA FORRAR ESQUIFES DE MUMIAS ESSES PAPIROS QUE ARQUEOLOGOS CONTINUAM DESCOBRINDO TODOS OS ANOS EM GERAL CONTEM APENAS POUCAS LINHAS MAS QUE SOBREVIVE DATADO DE CERCA DE AC DA NOSSA ERA E SUFICIENTE PARA DEMONSTRAR QUE OS TEXTOS DOS LIVROS MANUSCRITOS MEDIEVAIS PRESERVAM EM TERM OS GERAIS OS MESMOS VERSOS CONHECIDOS PELOS LEITORES DE HOMERO EM ROLOS DE PAPIRO DA ANTIGUIDADE MAS CAMINHO DA ALGUMAS VOLTAS ATE RECUARMOS AO PERIODO GREGO ARCAICO QUANDO ODISSEIA FOI REGISTRADA POR ESCRITO EM PRIMEIRO LUGAR NAO SE PODE IGNORAR FATO DE QUE UMA POR AO DOS PRIMEIROS TEXTOS EM PAPIRO CONTEM VERSOS EXTRAS COMPARADOS AOS TEXTOS PADRAO CONSTRUIDOS EM MANUSCRITOS COMPLETOS NA IDADE MEDIA OS VERSOS DESSES PAPIROS ESPURIOS POR ASSIM DIZER SOAM COMO PREENCHIMENTO DESCRIBES ADICIONAIS OU CENAS COMPLICADAS QUE GERAL TERN PARALELOS EM OUTROS PONTOS POEMA DE ONDE VEM ESSES VERSOS MUITO POSSIVELMENTE REFLETEM VARIAS TRADIFOES DE RECITAFAO POEMA CORRENTES POR VOLTA DE AC AQUI ENTRA UM SEGUNDO FATOR ACADEMISMO ANTIGO LOGO DEPOIS DA EPOCA DE ALEXANDRE GRANDE QUE DIFUNDIU CULTURA GREGA ATE INDIA SURGIRAM DOIS GRANDES CENTROS DE CONHECIMENTO UM EM PERGAMO CERCA DE QUILOMETROS SUDESTE DA ANTIGA TROIA QUE E HOJE TURQUIA E OUTRO EM ALEXANDRIA EGITO APOESIA HOMERICA ERA NAO FAVORITA DE ALEXANDRE DIZEM QUE ELE DORMIA COM UMA COPIA DA LLIADA DEBAIXO TRAVESSEIRO COMO TAMBEM UM SIMBOLO VALIOSO DA DIFUSAO DA ALTA CULTURA GREGA INTELECTUAIS GREGOS ARDOROSOS ERUDITOS E COMPETITIVOS REUNIDOS EM CENTROS DE ESTUDOS MANTIDOS PELA REALEZA ESCREVIAM E DISCUTIAM SOBRE POESIA HOMERICA EM TODOS OS DETALHES CONCEBIVEIS DESDE USO DE PRONOMES ATE DIETA ALIMENTAR DOS HEROIS OBSERVAVAM ATENTOS QUE PERSONAGENS NUNCA COMIAM PEIXE UM RESULTADO DE TODA ESSA ATIVIDADE ACADEMICA DE ZENODOTO ARISTOFANES DE BIZANCIO E GRANDE ARISTARCO FOI AO QUE TUDO INDICA ESTABELECIMENTO DE UM TEXTO ANTIGO RAZOAVELMENTE PADRONIZADO POR VOLTA DE AC PELO MENOS DEPOIS DESSA DATA VERSOS EXTRAS OCORREM COM MUITO MENOR FREQUENCIA NOS PAPIROS ODISSEIA E LLIADA DEVEM TER PASSADO POR UMA ESPECIE DE PROCESSO DE PENEIRAMENTO UMA PADRONIZAAO QUE LAMENTAVELMENTE PODE TER APAGADO ALGUMAS VARIADES INTERESSANTES QUE FLORESCERAM ATE ENTAO ALGUNS ESTUDIOSOS ESPECULAM QUE ODISSEIA DEVIA SER POR VOLTA DE AC UM TANTO MAIS LONGA QUE NOSSA VERSAO OU BEM DIFERENTE DEPENDENDO DA CIDADE ONDE SE ADQUIRIA TEXTO OU QUE E MAIS PRESUMIVEL DE QUERN RECITAVA PLATAO QUE NASCEU EM AC CITA COMO HOMERICOS MUITOS VERSOS QUE NAO EXISTEM EM NENHUM DE NOSSOS TEXTOS OU QUE TERN CONSTRUSAO BASTANTE DIFERENTE MEDIDA QUE RECUAMOS TEMPO ODISSEIA SE ENCONTRA MAIS E MAIS NAS MAOS DE INTERPRETES ORAIS COMO RAPSODO COSTURADOR DE CANSAO CHAMADO ION EM TORNO DE QUERN PLATAO ESCREVEU UM DILOGO HOMONIMO ESSE RECITADOR RELATO LITERARIO DE PLATAO DIZTER CONHECIMENTO ENCICLOPEDICO PORQUE CONHECE POESIA HOMERICA MUITO BEM E HOMERO JA ERA CONSIDERADO UM SABIO UNIVERSAL NA EPOCA DE PLATAO ESSA PARECE SER UMA ATITUDE COMUM EM RELATO AO POETA SECULO V AC QUANDO GRANDE PARTE QUE ERA TIDO POR EDUCAGAO SE CONSTRUIA APRENDIZADO DETALHADO DAS EPOPEIAS COMO RAPSODO ION COMPETIA COM OUTROS INTERPRETES EM FESTIVALS INTERNACIONAIS ELE COSTUMAVA TAMBEM EXPLICAR HOMERO NOS INTERVALOS DA APRESENTAGAO DOS POEMAS COMO UMA PALESTRA DRAMATICA NAO E DIFICIL IMAGINAR ESSES INTERPRETES RAPSODICOS VARIANDO EXPANDIDO OU ENFATIZANDO TRECHOS POEMA CONFORME PARTICULARIDADES PUBLICO NAO EXISTE NENHUMA PROVA DE QUE SE LIMITASSEM UM TEXTO EXATO E POSSIVEL TAMBEM QUE ANDANGAS DE ODISSEU FOSSEM REPRESENTADAS POR INTERPRETES QUE ESTAVAM ELES PROPRIOS ACOSTUMADOS VIAJAR DE UMA PRAGA OUTRA SEM PARAR ESSA ASSOCIAGAO ENTRE HEROI FICTICIO E POETA DE FATO OCORRE AINDA HOJE ENTRE CANTORES EPICOS EGIPCIOS COMO DEMONSTROU FOLCLORISTA DWIGHT REYNOLDS NAO PARECE ENFIM MUITO DISTANTE RAPSODO HISTORICAMENTE COMPROVADO INTERPRETE QUE AFIRMA REPRODUZIR ODISSEIA DE HOMERO FENOMENO DE UM POETA DE MAESTRIA ORAL COMPOR PROPRIO ATO DA PERFORMANCE E VARIAR SUA COMPOSIGAO DE ACORDO COM PLATEIA DA FORMA COMO POETAS ORAIS E MESMO CANTORES DE RAP ATIVOS HOJE EM DIA EM VARIAS CULTURAS AINDA COSTUMAM FAZER MAS AQUI CHEGAMOS REGIOES MAIS TURVAS NA BUSCA PELA ODISSEIA REINO DA CHAMADA QUESTAO HOMERICA SERA QUE EXISTIU DE FATO UM BARDO CHAMADO HOMERO SE EXISTIU TERA SIDO ELE PRIMEIRO ESCREVER OU DITAR ODISSEIA E ILIADAL E SE ERA UM POETA ORAL PRATICANTE QUE OU MOTIVOU MUDAR DE TECNOLOGIA NAO SABEMOS COM CERTEZA DATA LOCAL OU CIRCUNSTANCIAS REGISTRO ESCRITO DA ODISSEIA E BEM PROVAVEL QUE POEMA TENHA SE CRISTALIZADO AO LONGO DE GERAGOES DE PERFORMANCES ORAIS AO VIVO E COMPETIGDES PERIODO ENTRE AC E AC AO QUE TUDO INDICA FOI REGISTRADO POR ESCRITO BASTANTE TARDE TALVEZ SOB PATRONATO DOS GOVERNANTES PISISTRATIDAS DE ATENAS C AC EM FUNGAO DOS CONCURSOS DE POESIA HOMERICA EM FESTIVAIS VEJA NAGY TAMPOUCO CONTAMOS COM QUALQUER INFORMAGAO CONFIAVEL RESPEITO POETA HOMERO OS GREGOS PERIODO CLASSICO ACREDITAVAM QUE ELE TINHA VIVIDO NA JONIA HOJE COSTA OCIDENTAL DA TURQUIA CERCA DE QUATROCENTOS ANOS DEPOIS DA GUERRA DE TROIA QUE TEVE LUGAR SEGUNDO AVALIAGAO ANTIGA POR VOLTA DE AC E TOTALMENTE POSSIVEL QUE UM GRANDE INTERPRETE CHAMADO HOMERO TENHA EXISTIDO NA EPOCA MAS E POUCO CRIVEL QUE TENHA SIDO RESPONSAVEL POR NOSSA ODISSEIA EM SUA PRESENTE FORMA MESMO QUE ELE SEJA AUTOR NUM SENTIDO MODERNO RESPONSAVEL PELA ESCOLHA DE CADA PALAVRA POEMA CONFORME CONHECEMOS HOJE NAO DEVEMOS ESQUECER QUE OBRA COMO DEMONSTRAM SUAS ALUSOES ESTILO E LINGUAGEM ARCAICA ARTIFICIAL TAMBEM DEVE SER EXTREMAMENTE TRADICIONAL DIVERSAS CAMADAS LINGUISTICAS DA ODISSEIA SUGEREM QUE ALGUNS ELEMENTOS DEVEM SER ORIUNDOS PROPRIO PERIODO QUE CELEBRA EPOCA DOS HEROIS DA ERA MICENICA C AQ PORTANTO EXISTE AO MENOS UMA VERDADE SIMBOLICA EMBUTIDA EM UMA DAS MUITAS LENDAS QUE CIRCULARAM RESPEITO DE HOMERO SEGUNDO QUAL ELE ERA FILHO DE TELEMACO FILHO DE ODISSEU INDEPENDENTEMENTE DE QUANDO POEMA TENHA SIDO CONCEBIDO SEU AUTOR GRAAS MUSA SENTIUSE EM CONTATO QUASE IMEDIATO COM SEUS EVENTOS RESULTADO E COMPOSIFAO VIVIDA E ETERNA QUE PODEMOS LER OUVIR E AVALIAR AINDA HOJE ATECNICA HOMERICA ATEXTURA DA ODISSEIA E DA ILIADA CONSTRUAO DE CENAS DISCURSOS E VERSOS PODE SER MAIS BEM APRECIADA LUZ DE TECNICAS ENCONTRADAS EM EPOPEIAS TRADICIONAIS ORAIS TIPO APRESENTADO AINDA HOJE EM ALGUMAS PARTES MUNDO SOBRETUDO NA ASIA CENTRAL E NA AFRICA E ANTES COMUM EM TODA EUROPA CINCO ARGUMENTOS QUE SE ENTRELAAM SUSTENTAM IDEIA DE QUE POESIA HOMERICA COMO CONHECEMOS VEM DE UMA FORMA ARTISTICA QUE NAO CONTAVA COM ESCRITA PRIMEIRO POEMA EM SI DESCREVE ARTE DE NARRAR HISTORIAS SOBRE HEROIS E DEUSES EMPREGANDO PALAVRAS RELACIONADAS CANAO NUNCA MENCIONANDO ESCRITA OU MESMO RECITAAO POR EXEMPLO CANTOR FEACIO DEMODOCO CANTO CANTA TRES COMPOSIFOES BASTANTE DIFERENTES DUAS DELAS SEMELHANTES FLASHES DE NOTICIARIO RESPEITO DA GUERRA DE TROIA ENQUANTO TERCEIRA RELATA COMO DEUS HEFESTO SURPREENDEU SUA ESPOSA ADULTERA AFRODITE FEMIO BARDO DE ITACA RESPONDENDO AO CAPRICHO DA PLATEIA OS INQUIETOS PRETENDENTES DE PENELOPE CANTA SOBRE VOLTA DESASTRADA DOS GREGOS INCLUSIVE ODISSEU COMO ESPERAVAM OS PRETENDENTES PENELOPE PODE PEDIR QUE ELE MUDE DE ASSUNTO ASSIM COMO ODISSEU PODE PEDIR UMA PERFORMANCE ESPECIFICA DEMODOCO POESIA DE HOMERO PODE NAO TER SIDO COMPOSTA DESSA MANEIRA INTERATIVA ABERTA PLATEIA MAS PELO MENOS QUER SUPOR SUAS RAIZES EM SITUADES ASSIM ODISSEIA E UMA HISTDRIA PODEROSA UMA NARRATIVA SOBRE MEMORIA VOLTA PARA CASA NECESSIDADE HUM ANA E DESEJO E TAMBEM UM POEMA FINAMENTE TECIDO COM TODO PODER E BELEZA QUE BROTAM USO PRECISO DE PALAVRAS E IMAGENS MAS ACIMA DE TUDO E RESULTADO DE UMA TRADIAO CENTENARIA DE APRESENTAOES PUBLICAS UMA TRADIAO QUE POESIA EM SI IDENTIFICA COM CANTAR DE HISTORIAS GREGO HOMERICO POETA E UM CANTOR AOIDOS E SEU TRABALHO E CANAO AOIDE PALAVRA QUE ACABA ENTRANDO PARA INGLES E PARA PORTUGUES COMO ODE ODISSEIA COMEA COM POETA PEDINDO UMA DEUSA QUE CONTE HISTORIA MUITASVIAS ELE INVOCA UMA MUSA UMA DAS NOVE FILHAS DE MEMORIA NAO POR ACASO ESSAS DIVINDADES NARRATIVAS NOS EMPRESTAM PALAVRA MUSICA MAIS UMA VEZ POESIA HOMERICA SE APRESENTA COMO ALGO QUE VAI ALEM DISCURSO COMUM ALGO MAIS PERTO DA VOZESPECIAL DOS DEUSES UMA FORMA DE ARTE PROXIMA PURO SOM HARMONIOSO ATRADAO DA CANAO EPICA QUE NOS LEGOU ODISSEIA ESTA LONGE DE SER PRIMITIVA AO CONTRARIO POESIA HOMERICA E CONSCIENTE AO EXTREMO DE SEU PROPRIO INSTRUMENTO ODISSEIA AINDA MAIS QUE OUTRA GRANDE EPOPEIA QUE CHEGOU ATE NOS ILIADA REFLETE REPETIDAS VEZES SOBRE PODER CANTO NARRATIVO PARA ENTRONIZAR OS FEITOS DOS HEROIS E TRANSMITILOS GERAOES FUTURAS CONSEQUENTEMENTE NA CULTNRA QUE POEMA DESCREVE OS CANTORES OCUPAM UM LUGAR DE ALTA HONRA PARA UM PRETENDENTE HEROI NAO ENTRAR REPERTORIO EPICO DE UM CANTOR SIGNIFICAVA ESQUECIMENTO QUE DIZRESPEITO AO FUTURO RENOME COLOCANDO DE OUTRA FORMA RAZAO PELA QUAL HOJE CONHECEMOS ODISSEU E AQUILES HELENA E PENELOPE E QUE POESIA EPICA CUMPRIU SUA ORGULHOSA E AMBICIOSA PROMESSA DE IMORTALIDADE DE FAMA IMORREDOURA AETIMOLOGIA DA PROPRIA PALAVRA PARA FAMA NA LINGUAGEM HOMERICA DEIXA CLARO ATE QUE PONTO TODO ESSE SISTEMA CANTO CELEBRADOR DEPENDIA DESEMPENHO ORAL POIS KLEOS FAMA OU GLORIA E LITERALMENTE AQUILO QUE E OUVIDO PALAVRA INGLESA LOUD P SONORO ALTO E CLAMOR EM PORTUGUES PELA VIA LATIM CLAMOR VEM DA MESMA RAIZ SEGUNDO EVIDENCIAS ARQUEOLOGICAS DEMONSTRAM QUE ALGO COMO GUERRA DE TROIA OCORREU NA REGIAO DESCRITA NOS POEMAS COM ARMAS DE BRONZE COMO AQUELAS QUE HOMERO DESCREVE E COM CONSEQUENTE DESTRUIAO E DESLOCAMENTO DE POPULAOES ALEM DISSO DATAFAO TRADICIONAL ANTIGA DA GUERRA SECULO XII AC SE ENCAIXA RELATO HOMERICO DE UMA GERAAO HEROICA FINAL MAS ESCRITA ALFABETICA PARA REGISTRAR OS RELATOS EM VERSO OU PROSA DESSA GUERRA ESTAVA DISPONIVEL NA GRECIA EM AC NA MELHOR DAS HIPOTESES PELA ESTIMATIVA DA MAIORIA DOS ESTUDIOSOS PELO MENOS TREZENTOS ANOS FRENTE PORTANTO UMA TRADIAO ORAL DE ALGUM TIPO DEVE TER EXISTIDO ANTES DOS TEXTOS HOMERICOS AEVIDENCIA DA LINGUA DE HOMERO FORNECE UMA TERCEIRA CONFIRMAAO GREGO DA ODISSEIA NUNCA FOI UMA LINGUA FALADA EM NENHUMA EPOCA OU REGIAO MULTIFACETADO E VEZES BASTANTE CONSERVADOR DIALETO HOMERICO PARECE TER SIDO FORJADO POR E PARA POETAS ENTRE OUTRAS PECULIARIDADES CONTEM FORMAS QUE NAO POSSUEM NENHUMA BASE HISTORICA EM COMPARAAO COM OUTRAS LLNGUAS CORRELATAS MAS QUE SAO CONVENIENTES PARA METRICA AO MESMO TEMPO RETEM UMA PORAO DE FORMAS DE UM DADO CONCEITO TAL COMO PERTENCENTE MIM MAS APENAS QUANDO FORMAS MANTEM METRICAS DISTINTAS UTE COMO SUPERIOR E SUPER EM PORTUGUES QUE OFERECEM CONVENIENTEMENTE ALTERNATIVAS METRICAS AO POETA EM RESUMO LINGUA POETICA E TRADICIONAL E ABARCA GERAOES AQUARTA PROVA DE UM HOMERO ORAL VEM DA DICAO POETICA EM SUA PESQUISA DE DOUTORAMENTO NOS ANOS E SOBRE FORMULAS REPETIDAS NA POESIA HOMERICA UM JOVEM CALIFORNIANO MILMAN PARRY DESCOBRIU QUE HAVIA UMA ECONOMIA EM AAO AO INVESTIGAR COM RIGOR SISTEMA BEM CONHECIDO DE ADJETIVOS APLICADOS PERSONAGENS IMPORTANTES DOS POEMAS OS PERSONAGENS CHAMADOS DE PELIGEIRO AQUILES E MUITAASTUCIA ODISSEU SAO DESCRITOS EM OUTROS VERSOS POEMA COMO BRILHANTE AQUILES OU MUITO HABIL ODISSEU QUANDO ISSO ACONTECE NAO HA MUDANA PERCEPTIVEL NA ENFASE NARRATIVA AO CONTRARIO OS SINTAGMAS EM QUESTAO PRODUZEM UMA FORMA METRICA DIFERENTE E PRECISO TER EM MENTE QUE VERSO HOMERICO CONSISTE DE SEIS PES COM OS CINCO PRIMEIROS COMPOSTOS OU POR UM DACTILO UMA SILABA LONGA MAIS DUAS CURTAS UU OU UM ESPONDEU DUAS SILABAS LONGAS ULTIMO PE SEXTO VERSO E UM ESPONDEU OU UM TROQUEU UMA LONGA E UMA CURTA U UMA MARCADA CONCLUINDO EFEITO RITMICO QUE TRADUAO DE MCCRORIE CAPTA BRILHANTEMENTE ORA ADJETIVO PELIGEIRO COM NOME AQUILES E EM GREGO PODAS OKUS AKHILLEUS SINTAGMA QUE PREENCHE UMA POSIAO METRICA OCUPANDO DOIS PES E MEIO VERSO HEXAMETRO DACTILO UUUU MAS SE SUBSTITUIRMOS PELO ADJETIVO BRILHANTE AO LADO NOME PERSONAGEM OBTEREMOS UM SEGMENTO METRICO CURTO OCUPANDO DOIS PES DIOS AKHILLEUS UU CONTANDO ESSES SINTAGMAS PARRY PROVOU QUE PARA TODAS E CADA UMA DAS FIGURAS HEROICAS OU DIVINAS PRINCIPAL EM HOMERO EXISTIA UM E QUASE SEMPRE APENAS UM EPITETO POR POSIAO METRICA E CASO GRAMATICAL SUJEITO OBJETO GENITIVO E ASSIM POR DIANTE PORTANTO POESIA HOMERICA MAIS UMA VEZ REPRESENTA UMA FORMA ARTISTICA TRADICIONAL MULTIGERACIONAL PELA SIMPLES RAZAO DE QUE NENHUM POETA INDIVIDUAL TERIA MOTIVAAO DE DIVISAR TAL SISTEMA TAO COMPLETO E ECONOMICO ELA FOI CRIADA PROVAVELMENTE PARA COMPOSIAO RAPIDA VERSO NA PERFORMANCE AO VIVO CONFORME POESIA EFETIVAMENTE APRESENTA SI PROPRIA COM COERENCIA QUINTO ARGUMENTO DA PROVA COMPARATIVA ESTA RELACIONADO AO ANTERIOR PARRY E SEU COLABORADOR ALBERT LORD DESCOBRIRAM EM TRABALHO DE CAMPO NA ANTIGA IUGOSLAVIA QUE SISTEMAS DE DICAO EXTENSOS E UTEIS SEMELHANTES ESSE ERAM EMPREGADOS POR INTERPRETES ILETRADOS DA POESIA HEROICA TRADICIONAL SERVO CROATAT DESDE SEU TRABALHO DOS ANOS PESQUISADORES DE CAMPO CONFIRMARAM ESSA TENDENCIA EM DEZENAS DE OUTROS SISTEMAS DE POETICA ORAL DIANTE DESSAS INDICAOES NAO PODEMOS PRETENDER LER ODISSEIA JEITO QUE SE LE UMA EPOPEIA ESCRITA SEJA ENEIDA DE VIRGILIO DIVINA COMEDIA DE DANTE OU PARAISO PERDIDO DE MILTON MAIS IMPORTANTE NOSSA LEITURA DEVE LEVAR EM CONSIDERA AO RESSONANCIA DE SINTAGMAS REPETIDOS UMA VEZQUE PODEMOS TER CERTEZA DE QUE QUASE TODOS ESSES SINTAGMAS J EXISTIAM NA TRADIFAO POETICA E ERAM PORTANTO CONHECIDOS DE UMA PLATEIA QUE OUVIA PERFORMANCE EPICA DE HOMERO UM POETA COMO AUTOR DA ODISSEIA E CAPAZDE CRIAR EFEITOS SIGNIFICATIVOS EVOCANDO MOMENTO EXATO MUNDO DE ASSOCIAFOES EMBUTIDO EM UM UNICO SINTAGMA QUE FOI USADO POR GERAOES EM MUITOS OUTROS POEM COM UM ESCOPO DE SIGNIFICADOS QUE SUA PLATEIA E CAPAZDE APRECIAR JOHN MILES FOLEY FOLEY E CHAMOU POESIA QUE DISSO RESULTOU DE ARTE IMANENTE POIS NESSE MEIO DE EXPRESSAO CARATER ALUSIVO ENFATIZADO POR FORMULAS PRODUZPROFUNDIDADES QUE VAO MUITO ALEM DA SUPERFICIE LIMPIDA POEMA COMO OS LEITORES MODERNOS NAO CONHECEM CONTEXTO EM QUE ESSA ARTE COMEOU FLORESCER PODEMOS ESPERAR MXIMO RECUPERAR ESPECTRO DE SIGNIFICADOS DE UM SINTAGMA OLHANDO TODAS SUAS OCORRENCIAS E CALCULANDO EFEITO QUE TERIA SE PLATEIA TROUXESSE PARA COMPREENSAO DA CENA UM RECONHECIMENTO DE TODAS OUTRAS SITUAFOES EM QUE UM SINTAGMA PARTICULAR FOI OU PODERIA SER USADO ATECNICA E DIFERENTE DA TECNICA ROMANCE LEITOR DE OS EUROPEUS OU DE ULYSSES DESCOBRE AOS POUCOS PAGINA PAGINA COMO SAO RICOS CERTOS SINTAGMAS QUE JAMES OU JOYCE DESTINAM SEUS PROTAGONISTAS CADA ROMANCE CRIA SUA PROPRIA LINGUAGEM ENQUANTO EPICO ORAL GREGO CONTAVA COM LONGA EXPERIENCIA PUBLICO DE UMA RICA TRADIFAO DE RECITAAO JA CARREGADA DE SIGNIFICADO PARA ENVOLVER E COMOVER SEUS OUVINTES DE IMEDIATO CONSIDEREMOS POR EXEMPLO MANEIRA COMO CARACTERIZAAO DE TELEMACO ACONTECE NA ODISSEIA COM AJUDA DE UM ESTILO BASEADO NA FORMULA NA PRIMEIRA VEZQUE VEMOS TELEMACO ATENA DISFARADA DE MENTES ACABOU DE CHEGAR AO PALACIO DE ITACA TELEMACO ANTES DE QUALQUER OUTRO TTV E IOXU JIPDJROG IE TREPAXOQ OAF PRIMEIRO VELA FOI DEIFORME TELEMACO THEOEIDES DEIFORME E UMA DAS QUATRO FORMULAS EPITETOSUBSTANTIVO PARA TELEMACO CASO NOMINATIVO OU DE SUJEITO SIMPLES FATO DE POETA USAR UM EPITETO PARA TELEMACO AQUI QUANDO VEMOS PELA PRIMEIRA VEZ INDICA QUE CENA IMEDIATAMENTE SEGUINTE E IMPORTANTE PARA ENTENDIMENTO DE SEU CARATER EPITETO E COMO UINA NOTA MUSICAL UNICA SOANDO INICIO DE UMA COMPOSIFAO ALEM DISSO ELE OCORRE EM CONTRASTE COM QUALQUER UM DOS TRES OUTROS EPITETOS QUE HOMERO PODERIA TER USADO PARA TELEMACO SE TIVESSE MOLDADO VERSO UM POUQUINHO DIFERENTE HIERE E FORA SAGRADA PEPNUMENOS INTELIGENTE E HERDS HEROI MEDIDA QUE POEMA PROGRIDE EPITETO THEOEIDES VEM SE RELACIONAR COM UM TEMA ESSENCIAL DA ODISSEIA DE COMO APARENCIA VEZES ENTRA EM CONFLITO COM VERDADEIRA IDENTIDADE OU HABILIDADE ODISSEU DISFARSADO FAZUM SERMAO SOBRE APARENCIAS DEPOIS DE CATOAREM DELE NOS JOGOS DOS FEACIOS NA SITUAAO DRAMATICA DESSA PASSAGEM TER UMA BOA APARENCIA EIDOS INDICA QUE PESSOA NEM FALA BEM NEM E DE FATO MUITO INTELIGENTE E SIGNIFICATIVO QUE JOVEM ILHEU EURIALO QUE TERN HABILIDADE ATLETICA MAS NENHUMA ELEGANCIA RETORICA SEJA OBJETO DA REPREENSAO DE ODISSEU DECORRER EPISODIO FEACIO NOS ASSISTIMOS SEU APRENDIZADO FINAL CANTO ELE TERN INTELIGENCIA E ELEGANCIA DE OFERECER ODISSEU UMA ESPADA E UM PEDIDO DE DESCULPAS ORA ESSE PROCESSO DE EDUCAAO E EXATAMENTE QUE ACONTECE COM TELEMACO DECORRER DA ODISSEIA COMO UM TODO CONFORME MUITOS CRITICOS OBSERVARAM ADJETIVO THEOEIDES MARCA MODO COMO HOMERO MANEJA ESSE TEMA TRADICIONAL QUE PODEMOS CHAMAR DE HEROI AMADURECE QUANDO PLATEIA LIGADA SISTEMA DE SINTAGMAS TRADICIONAL OUVE PELA PRIMEIRA VEZ TELEMACO DESCRITO COMO DEIFORME ELA RECEBE UM PACOTE DE MENSAGENS TEMATICAS E DIRE OES NARRATIVAS POTENCIAIS ENTANTO ESSE PROCESSO NAO SE DA SEM SUSPENSE FILHO DE ODISSEU PODE ACABAR SENDO COMO OS OUTROS QUE RECEBERAM ESSE EPITETO PARIS NA ILIADA ALEXANDRAS THEOEIDES UMA FIGURA MENOS QUE HEROICA QUE DEPENDE DA APARENCIA PARA SE VIRAR OU EURIALO INGENUAMENTE ARROGANTE MAS EDUCAVEL DE FATO CADA UMA DESSAS DUAS ALTERNATIVAS TEMATICAS SURGE DECORRER DA ODISSEIA ADJETIVO THEOEIDES E USADO TRES VEZES PARA DESCREVER UM OU OUTRO DA DUPLA DE PRETENDENTES PRINCIPAL EM ITACA JOVEM ARROGANTE EURIMACO E ANTINOO TIPOS PERIGOSOS QUE NAO GOSTAM DE TELEMACO JOVEM BOM MAS NAO PERFEITO APARECE TAMBEM NA FIGURA VIDENTE TEOCLIMENO AO QUAL EPITETO THEOEIDES E APLICADO CINCO VEZES E CUJO NOME EM SI QUE OUVE DEUS SE ENCAIXA COM SEU SENTIDO QUANDO ESSE JOVEM FUGITIVO ENCONTRA TELEMACO VEMOS UM IMPORTANTE ESTAGIO CRESCIMENTO DESTE SEM QUESTIONAR ELE FICA AMIGO PROSCRITO MOSTRANDO ASSIM QUE ASSIMILOU CODIGO CULTURAL REFERENTE HOSPEDESAMIGOS E TAL QUALIDADE ARTLSTICA DA REPETIAO DE FORMULAS QUE E POSSIVEL TRAAR LINHAS TEMATICAS SIMILARES ACOMPANHANDO DESENVOLVIMENTO DE QUALQUER EPLTETO POEMA OUTRO RECURSO PODEROSO USADO NA ODISSEIA E CARACTERIZATJAO POR MEIO DE DISCURSOS CALCULOUSE QUE MAIS DE METADE POEMA E APRESENTADO NESSE FORMATO ALEM DE SER UM ESTILO POETICO DISCURSAR ERA COM TODA PROBABILIDADE UM FENOMENO CULTURAL IMPORTANTE OS GREGOS ANTIGOS DE TODOS OS PERLODOS ADMIRAVAM HABILIDADE RETORICA LLIADA CONTA COMO AQUILES FOI CRIADO PARA SER UM ORADOR DE DISCURSOS E AGENTE DE FEITOS PARTE DA ATRAFAO E DA INFLUENCIA DA POESIA HOMERICA EM ERAS POSTERIORES VEM DE SUA EXCELENCIA NA MIMESE REPRESENTAAO DE DISCURSO DIRETO PLATAO POR OUTRO LADO APONTA ESSA MESMA TECNICA MIMETICA COMO PERIGO CENTRAL DENTRO EPICO HOMERICO QUANDO BANIU DE SUA CIDADEESTADO IDEAL EM REPUBLICA ESSES DISCURSOS PODEM SER COMANDOS AMEAAS OU PROMESSAS PROFERIDAS DE UM PERSONAGEM PARA OUTRO DISCURSOS PUBLICOS ASSEMBLEIAS REMEMORASES EM COMPANHIA DE CONVIVAS EM UM JANTAR OU MESMO MONOLOGOS DIRIGIDOS AO PROPRIO CORAGAO E MENTE COMO DISCURSO QUE ODISSEU FAZ QUANDO SE CORRENDO RISCO DE MORRER AFOGADO EM VEZDE CONTAR PLATEIA QUE SE PASSA NA MENTE DOS PERSONAGENS POEMA AUTOR FAZESSAS FIGURAS FALAREM CONSIGO MESMAS RESULTADO E QUE FICAMOS COM UMA SENSAGAO DE INTIMIDADE DE INTENSA INTERAO ENTRE OS HEROIS HOMERICOS E SEU AMBIENTE E DOS MEIOS ESPECIFICOS COMO SE APRESENTAM PARA MUNDO OUTRO REFINAMENTO NA TECNICA CONSISTE EM JUSTAPOR OS DISCURSOS DE DIFERENTES PERSONAGENS FIM DE EXPRESSAR CONFLITO OU SUGERIR EMOOES MAIS PROFUNDAS NAO EXPRESSAS ACONVERSA ENTRE HELENA E MENELAU CANTO QUANDO CADA UM CONTA UMA HISTORIA PARA SEUS VISITANTES REPRESENTA ESSA ARTE CONTRASTANTE EM SUA FORMA MAIS ELEVADA SEM NENHUM INDICIO PELA VOZDO PROPRIO NARRADOR CRIASE MESMO ASSIM IMPRESSAO DE QUE HEROI ENVELHECIDO E SUA ESPOSA QUE UM DIA CAUSOU TANTA DESTRUIAO AINDA ESTAO IMERSOS EM SUAS QUEIXAS E PROTESTOS RECIPROCOS ASERIE DE ENCONTROS ENTRE ODISSEU E SUA ESPOSA PENELOPE QUE SE ESTENDE CANTO ATE PERMITE QUE LEITOR INTUA COMO E RELACIONAMENTO DELES MAIS QUE QUALQUER INFORMAAO QUE NARRADOR PUDESSE FORNECER E OS PARALELOS PROXIMOS CRIADOS POR ESSE USO DE DISCURSOS DIRETOS EM SERIE POR EXEMPLO CINCO HISTORIAS CONTADAS POR ODISSEU DISFARADO EM ITACA OU OS ENCONTROS DE TELEMACO COM NESTOR E MENELAU ENRIQUECEM AINDA MAIS POEMA COM SUTIS VARIAOES SE COM FORMULAS POETA JOGA COM CONHECIMENTO COMUM DE ALUSAO E ASSOCIAAO DA PLATEIA COM OS DISCURSOS ELE PODE PRODUZIR NOVOS E MULTIPLOS PONTOS DE VISTA UMA TERCEIRA CARACTERISTICA TECNICA SIMILE PODE SER CONSIDERADO UMA COMBINAAO DA TRADIAO DA FORMULA COM USO INOVADOR DISCURSO SIMILE HOMERICO MUITAS VEZES COMPREENDE MAIS DETALHES QUE PODEMOS JULGAR NECESSARIOS PARA FAZER UM COTEJO VEJAMOS DOIS EXEMPLOS QUE OCORREM COME CANTO QUANDO ODISSEU DEITADO SEM DORMIR SE ZANGA COM VISAO DAS SERVIAIS DORMINDO COM OS PRETENDENTES SEU CORAAO DENTRO LATIA COMO CADELA ENVOLVENDO OS FRAGEIS FILHOTES AO ESTRANHAR UM VARAO LATE SOFREGA POR BRIGAR ASSIM EM SEU INTIMO LATIA IRRITADO COM VIS AOES VERSOS DEPOIS DE DESCREVER COMO ODISSEU CONTROLA SUA RAIVA APOS GOLPEAR PEITO REPROVOU CORAAO COM DISCURSO POETA CONTINUA E SEU CORAAO OBEDIENTE DE TODO AGUENTOU E RESISTIU SEM CESSAR ELE PROPRIO REVIRAVASE PARA LA E PARA CA COMO QUANDO VARAO FORTE FOGO ARDENDO UM BUCHO CHEIO DE SANGUE E GORDURA PARA LA E PARA CA GIRA ALMEJANDO QUE BEM RPIDO FIQUE ASSADO ASSIM ELE PARA LA E PARA CA REVIRAVASE COGITANDO VERSOS OS DETALHES APARENTEMENTE ALHEIOS POREM EVOCAM MUITAS COISAS QUE UMA COMPARAAO MAIS BREVE DEIXA PASSAR SE POETA TIVESSE DITO APENAS SEU CORAO ROSNAVA COMO UM CAO IMAGEM PODERIA NOS TOCAR MAS SE PERDERIA POSSIBILIDADE DE UM IMPACTO EMOCIONAL POSTERIOR VERSAO EXPANDIDA DE UM JEITO AO MESMO TEMPO ESTRANHAMENTE FORA DE SINCRONIA E INTEIRAMENTE APROPRIADO ASSOCIA ODISSEU UMA FIGURA FEMININA MAE DOS FILHOTES QUE LATE PARA DEFENDELOS CONTRA UM MACHO INTROMISSOR EM TERM OS DA TRAMA GERAL ODISSEU POR MEIO SIMILE TORNOUSE IGUAL PENELOPE UMA MULHER FEROZMENTE INDEPENDENTE QUE RESISTE INCURSOES MASCULINAS EM SUA CASA DE ASSOCIAGAO MAIS IMEDIATA PODEMOS LEMBRAR CENA OCORRIDA NAO MUITO ANTES QUANDO ODISSEU CHEGANDO DISFARADO SEU PROPRIO PALACIO E RECONHECIDO POR ARGOS CAO QUE DEIXOU PARA TRAS VINTE ANOS ANTES AGORA INFESTADO DE CARRAPATOS E ABANDONADO INCAPAZDE SE MOVER MONTE DE EXCREMENTO ONDE SE ENCONTRA CACHORRO ABANA RABO COM DIFICULDADE E EXPIRA QUANDO SEU ANTIGO DONO PASSA POR ELE ESSA LIGEIRA DISSONANCIA CRIADA PELO SIMILE LEMBRA PLATEIA QUE ODISSEU EMBORA NA APARENCIA VELHO E INUTIL MOMENTO COMO ARGOS LOGO ASSUMIRA PAPEL DE CAO DE GUARDA E MESMO CAGADOR AO CASTIGAR OS PRETENDENTES OS SIMILES PORTANTO EMPREGAM ARTISTICAMENTE NUM FORMATO COMPRIMIDO DUAS OUTRAS TECNICAS FREQUENTES NA POESIA HOMERICA USO FLASHBACK E DA PREVISAO SEGUNDO SIMILE MENCIONADO ACIMA NA QUAL HEROI E COMPARADO UMA LINGUIA NUM PRIMEIRO MOMENTO PODE PARECER UM LUGARCOMUM COMICO ATE ARBITRARIAMENTE ANTIHEROICO UNICO PONTO DE LIGAAO APARENTE VEM DA SIMILARIDADE DE MOVIMENTO UMA VEZQUE TANTO HEROI COMO CARNE GIRAM COMO QUE ESPETO E MAIS UMA VEZA TECNICA HOMERICA REPOUSA EM NOSSO RECONHECIMENTO LAPSO ENTRE EVENTO IMEDIATO DA TRAMA E REMODE LAMENTO RETORICO DELE ODISSEU NAO CONSEGUE DORMIR PORQUE ESTA EM UM MOMENTO DE CRISE ANSIOSO QUANTO SUA CAPACIDADE DE PLANEJAR E LEVAR CABO UMA CHACINA ENQUANTO COZINHEIRO ANONIMO SIMILE TEM DE LIDAR APENAS COM PREPARAO DA COMIDA MESMO ASSIM PODEMOS IMAGINAR QUE GUERREIRO VETERANO PODIA MUITO BEM DESEJAR SERO COZINHEIRO PACIFICO DE FORMA QUE SIMILE E ENTAO FOCALIZADO NA PROPRIA CONSCIENCIA PERSONAGEM QUE PRETENDE DESCREVER VALE PENA LEMBRAR FINAL QUE QUANDO VISLUMBRAMOS ODISSEU PELA PRIMEIRA VEZNO POEMA ELE ESTA ANSIOSO POR VER FUMAA SUBIR DA CHAMINE DE SUA CASA ALEM DISSO COZINHEIRO E HEROI DESEJAM AMBOS INTENSAMENTE ALGUMA COISA DESEJO COZINHEIRO E EXPLICITADO ELE QUER ASSAR CARNE E ELE AO MENOS TEM COMO REALIZAR ISSO AO TRAZER MENTE ESSE DESEJO UNIVERSAL POETA FAZ SUA PLATEIA ADIVINHAR QUASE SENTIR GOSTO IMEDIATISMO IMPOSITIVO DESEJO DE VINGANA DE ODISSEU SEM NEM MENCIONALO NESSE MOMENTO AINSINUAAO E QUE TAMBEM ODISSEU LOGO ESTARA COMANDO PARA NAO DIZER QUE COZINHARA OS PRETENDENTES POR FIM AMBOS OS SIMILES DESSE TRECHO CACHORRO E COZINHEIRO TORNAM PUBLICAS AO MENOS EM SUA MEMORVEL IMAGETICA DIREOES DE PENSAMENTO INTERNAS PARTICULARES AO SE REFERIR AFOES COTIDIANAS RECORRENTES TORNAM NATURAL E NAO PROBLEMATICA QUE E DE FATO UMA VINGANSA SINGULAR E UM TANTO QUESTIONAVEL E DE PROPOSES EPICAS HISTORIA E ODISSEIA OS PROGRESSOS DA ARQUEOLOGIA DA LINGUISTICA E ESTUDO COMPARATIVO DA CULTURA AO LONGO SECULO PASSADO DEIXARAM CLARO QUE MUNDO PINTADO NAS EPOPEIAS DE HOMERO E UMA CRIAAO POETICA TEM ELEMENTOS DE ERAS DA CIVILIZAFAO GREGA QUE VAO DESDE AC ATE PERIODO DA TIRANIA DE PISISTRATO E SEUS HERDEIROS EM ATENAS EM MEADOS SECULO VI ASSIM COMO CULTURA GREGA OS EPICOS ABSORVERAM INFLUENCIAS ORIENTE MEDIO E EGITO TALVEZATE MAR NEGRO E ALEM AO MESMO TEMPO OS ELEMENTOS BASICOS MUNDO HOMERICO SAO CONSTANTES NA HISTORIA E NA VIDA SOCIAL MEDITERRANEA ATIVIDADES DE LUTA E NAVEGAGAO COMERCIO COLONIZAAO VITICULTURA E AGRICULTURA CRIAAO DE ASSENTAMENTOS EM BORA TECNICAS DE TODAS ESSAS DREAS MUDEM AO LONGO DOS SECULOS ATIVIDADES EM SI APRESENTAM LONGOS TREE HO DE CONTINUIDADE ATE MESMO SECULO XXI NAO CABE AQUI NEM MESMO MAIS BREVE ESBO DA HISTORIA DA GRECIA BASTARA OBSERVAR QUE OS FALANTES GREGO DEVEM TER SE AFASTADO POR VOLTA DE AC DOS FALANTES DE LINGUAS PROXIMAS OS DIALETOS DENTRO DA FAMILIA INDO EUROPEIA QUE EVOLUIRAM PARA FAMILIAS LINGUISTICAS ITALICA INDOARIANAS GERMANICA CELTA ESLAVA E OUTRAS VIAJANDO DAS ESTEPES SUL DA RUSSIA OU DA REGIAO CAUCASO PENETRARAM NOS BALCAS ENTAO LONGINQUO SUL EM TORNO DAS COSTAS EGEU ENCONTRARAM ALTAS CIVILIZAOES JA ESTABELECIDAS ENTRE ELAS OS EGIPCIOS E OS MINOICOS UM POVO NAO GREGO CENTRADO EM CRETA COM TEMPO CULTURA GUERREIRA GREGA BASEADA EM CIDADELAS E COMANDO PERSONALISTA FEZ EMPRESTIMOS CULTURAIS DOS MINOICOS E OUTROS POVOS ANTERIORES E DEPOIS TOMOU SEU LUGAR QUE E HOJE GRECIA CENTRAL E ILHAS PERIODO MICENICO C AC ASSIM CHAMADO EM FUNAO DE UMA DAS PRINCIPAL CIDADES MICENAS SE ENCERROU NAO E CLARO POR QUE COM UMA SERIE DE DESTRUIOES DAS QUAIS GUERRA DE TROIA E MUITO PROVAVEL UMA REMINISCENCIA ABSTRATA DESTILADA DEPOIS DA ANTIGUIDADE EXISTENCIA DE TROIA E DA GUERRA EM TORNO DELA FOI TOMADA COMO MERA FABULA QUANDO VIAGENS AO ORIENTE RESSURGIRAM DURANTE SECULO XVIII ANTIQUARIOS COMEARAM NOTAR INTIMA SEMELHANA ENTRE PAISAGENS DA EPOCA E DESCRIBES HOMERICAS DA AREA DA ASIA MENOR ASSOCIADA ANTIGAS LENDAS SECULO XIX BUSCA ROMANTICA PELAS ORIGENS E CRESCENTE DEVOAO EUROPEIA UM PASSADO CLASSICO IDEALIZADO SE COMBINARAM PARA CHAMAR MAIS ATENAO PARA OS VESTIGIOS FISICOS PASSADO CULMINANDO NOS ANOS COM INVESTIGATES DE UM ARQUEOLOGO DILETANTE RICO HEINRICH SCHLIEMANN GRANDE SITIO ARQUEOLOGICO DE HISSARLIK OESTE DA TURQUIA MODERNA SCHLIEMANN CAVOU E ENCONTROU RUINAS DE UMA CIDADE ANTIGA CAMADA SOBRE CAMADA QUE DATAVAM SECULO XII AC E AINDA MAIS ANTIGAS ATROIA ENTERRADA HAVIA MUITO VOLTAVA DE REPENTE LUZ ESCAVADES LOCAL CONTINUAM ATE HOJE EMBORA NENHUMA INSCRIFAO OU OBJETO INDIQUE QUE ESSE SEJA LUGAR QUE OS GREGOS CERCARAM E DESTRUIRAM ESTA FOI MUITO CLARAMENTE UMA CIDADE EXTENSA E RICA COM GRANDES MURALHAS E PORTOES NAO DIFERENTES DAQUELES DESCRITOS NA ILIADA E POUCO QUESTIONADO DE QUE SE TRATA DE TROIA DIVERSAS DE SUAS CAMADAS TROIAS VI E VII DATADAS POR VOLTA DA EPOCA DA GUERRA TROIANA COMO COMPUTADO PELOS PROPRIOS ANTIGOS APRESENTAM SINAIS DE SAQUE E INCENDIO NAO SE PODE PROVAR SE OS GREGOS CONTINENTE AGAMEMNON DOS MICENICOS MENELAU DE ESPARTA E COMPANHEIROS EFETUARAM ATAQUE EM ALGUM MOMENTO ENTRE E AC NEM SE SABE QUERN ERAM OSTROIANOS EM TERMOS ETNICOS E LINGUISTICOS OU ONDE FORAM PARAR OS RESTOS DE SUA POPULATO MIGRA OES PARA ASIA MENOR CONTINENTAL SOBRETUDO OS ASSENTAMENTOS COSTEIROS DA JONIA COMEARAM ANTES COLAPSO DA CULTURA PALACIANA MICENICA NA GRECIA CONTINENTAL FOI TALVEZ DURANTE ESSE PERIODO QUE HISTORIA DE UMA GRANDE CULTURA NESSES LUGARES UMA VEZDOMINADOS PELOS GREGOS GANHOU POPULARIDADE NAO E IMPOSSIVEL QUE SAGA DA GUERRA DE TROIA REMONTE ATE MESMO EM ALGUM TIPO DE FORMA VERSIFICADA AOS FATOS REAIS SECULO XII AC OS POEMAS QUE TEMOS PRESERVAM ALGUNS ELEMENTOS QUE SAO DE TEMPOS MICENICOS TANTO LINGUISTICA COMO CULTURALMENTE ASSIM OS HEROIS DE AMBAS EPOPEIAS USAM COM REGULARIDADE ANNAS E IMPLEMENTOS DE BRONZE FERRO QUE SE TORNOU METAL MAIS COMUM DEPOIS FIM DA CULTURA MICENICA NA CHAMADA IDADE DAS TREVAS DE AC E RARAS VEZES MENCIONADO ALUTA COM CARROS E CONHECIDA OS DESENHOS DE ESCUDOS ELM OS E ESPADAS COINCIDENT COM OBJETOS ENCONTRADOS SECULO XII LUGARES NOMEADOS TEXTO COMO FONTE DE TROPAS E NAVIOS EM MUITOS CASOS NEM ERAM HABITADOS DEPOIS SECULO XII E PORTANTO OS POEMAS DEVEM PRESERVAR DELES UMA MEMORIA HISTORICA ANTIGA E CONFEDERATE GUERREIRA QUE DOMINOU TROIA PARECE SE ENCAIXAR PADRAO ASSENTAMENTO CIDADELA DA EPOCA QUE EPOPEIAS SE PROPOEM DESCREVER AARQUEOLOGIA MOSTRA QUE PILO E TIRO MICENAS E TEBAS ERAM CENTROS IMPORTANTES NA IDADE BRONZE E ESSAS CIDADES FIGURAM COM DESTAQUE NAS EPOPEIAS AO MESMO TEMPO E CLARO QUE SECULOS DE TRANSMISSAO E REMODELAMENTO DOS POEMAS DENTRO DE UMA TRADIAO ORAL PERMITIRAM QUE ELEMENTOS HISTORICOS DE OUTRAS ERAS SE ENTRELA ASSEM LINHAS MAIS ANTIGAS POR EXEMPLO EMBORA CARROS SEJAM USADOS OS HEROIS PARAM E DESCEM DELES PARA LUTAR AO CONTRARIO USO QUE SE FAZIA DELES EM CULTURAS MAIS PARA LESTE QUE LEVA PENSAR QUE POETA NAO TINHA CERTEZA DE COMO ERAM EMPREGADOS DE FATO NA GUERRA ALGUNS OBJETOS E NOME DE LOCALS J SECULO VI AC FORAM DETECTADOS NAS EPOPEIAS EMBORA AUTOR EVIDENTEMENTE TENHA TENTADO ARCAIZAR ESTRUTURAS POLITICAS DA POLIS CIDADEESTADO CRISTALIZADAS PELA PRIMEIRA VEZNO SECULO VIII AC E IMPORTANCIA SANTUARIO DE APOLO EM DELFOS FENOMENO SECULO VII SAO OUTROS TRAOS NAO MICENICOS IMPORTANTES JA SE DISSE QUE ENFASE NA PROPRIA EXPEDIGAO GREGA UNIFICADA DEVE ESTAR LIGADA INSTITUTES PANHELENICAS QUE SE DESENVOLVERAM SECULO VIII REUNINDO GREGOS DE TODAS REGIOES DEPOIS DE VARIOS SECULOS DE ISOLAMENTO NAGY MUITOS INDICIOS APONTAM PORTANTO PARA UM PERIODO DE QUATRO SECULOS POSTERIORES GUERRA DE TROIA COMO PERIODO DE INCUBAAO CRUCIAL PARA TRADTES EPICAS EM CONTINUO DESENVOLVIMENTO SE CIDADELA EM RUINAS OBJETO CERCO LEGENDARIO FOI REVELADA QUE DIZER LUGAR DE ONDE ODISSEU SAIU PARA IR TROIA E SUA HISTORIA ITACA HOJE E UMA ILHA ROCHOSA CERCA DE CINQUENTA QUILOMETROS DA COSTA OCIDENTAL DA GRECIA CONTINENTAL PEQUENA SUFICIENTE PARA SER PERCORRIDA DE BICICLETA EM UM UNICO DIA NAO E NEM RICA EM ANTIGUIDADE NEM FAMOSA NAO SER COMO LAR E REINO DE ODISSEU ASSIM COMO CIDADE DE TROIA NAO HA COMO AFIRMAR SE ILHA HOJE CHAMADA ITACA OU THIAKI ERA LUGAR IMAGINADO PELO POETA DA ODISSEIA ESCAVAGOES EM CURSO POR UMA EQUIPE DA UNIVERSIDADE DE WASHINGTON EM ST LOUIS DESCOBRIRAM ATE AGORA RESTOS QUE PODEM SER MICENICOS CUJA IDENTIDADE AINDA NAO ESTA ESCLARECIDA DE QUALQUER FORMA VALE PENA LEMBRAR QUE MESMO DENTRO POEINA VIDA EM ITACA DIFICILMENTE SE COMPARAVA AO ESPLENDOR DOS PALACIOS VISITADOS POR TELEMACO CONTINENTE JOVEM HEROI CONTA SEU ANFITRIAO MENELAU QUE SUA ILHA NATAL AO CONTRRIO DE ESPARTA NAO TERN ESPAO SUFICIENTE PARA CRIAR CAVALOS SOB OUTROS ASPECTOS TAMBEM PODEMOS CONSIDERAR QUE ITACA FOSSE MENOS PODEROSA E IMPORTANTE DESPROVIDA DE GRANDES FORFAS SEU COM ANDANTE ODISSEU DEVIA OPERAR POR OUTROS MEIOS SEU CARATER INDIRETO E ASTUTO SE ENCABCA PANORAMA DE RECURSOS REDUZIDOS DE SEU COMPACTO REINO ENTANTO MORADA DE ODISSEU MESMO DE FORMA DISCRETA APRESENTA SINAIS DE UM CENTRA ECONOMICO REAL REI TEM REBANHOS E MANADAS EM OUTRAS ILHAS E CONTINENTE EMPREGADOS COMO PORCARIO EUMEU QUE FOI OBTIDO POR COMPRA OU CONQUISTA MANTEM OS RECURSOS DA CASA GRANDE MULHERES ESTAO SEMPRE TRABALHANDO PALACIO PRODUZINDO TECIDOS E GRANDE DEPOSITO DE ODISSEU QUE PENELOPE VISITA CANTO ESTA CHEIO DE OURO BRONZE E FERRO ESSES BENS IMPERECLVEIS ERAM USADOS AO LONGO DE TODOS OS PRIMEIROS TEMPOS GREGOS PARA CONSTRUIR REDOES DE TROCAS RECLPROCAS COM OUTROS ARISTOCRATAS POR MEIO DE PRESENTES OSTENTATORIOS OS PRESENTES DE MENELAU E ALCINOO SE ENCAIXAM NESSA DINAMICA ODISSEU COMO SOMOS INFORMADOS CANTO VERSO TINHA COSTUME DE FAZER VISITAS MESMO ANTES DE SUAS VIAGENS FORA DE AQAO DURANTE VINTE ANOS ENTANTO ELE NAO PERDEU OPORTUNIDADE DE PARTICIPAR DESSES IMPORTANTES INTERCAMBIOS DE PRESTIGIO COMO TAMBEM SOFREU AMEAA DE PERDER SEU GADO PELA DEPREDAGAO DOS PRETENDENTES DISFARCE DE MENDIGO QUE ASSUME EM ITACA SE APROXIMA PERIGOSAMENTE DA VERDADE ODISSEIA PARECE RECONHECER QUAO TENUE E LINHA DIVISORIA ENTRE EXISTENCE CONFORTAVEL E PENURIA SEM DUVIDA NA ECONOMIA DE SUBSISTENCE EM QUE VIVIA MAIORIA DOS GREGOS DE MUITAS ERAS ESSA IIAO FAZSENTIDO INSISTENCE POEMA NA PERDA E GANHO REFLETE ANSIEDADES REAIS DE QUE OS INFORTUNIOS ECONOMICOS DE APENAS UM HOMEM PUDESSEM COMPROMETER VIDAS DE SEUS DESCENDENTES DURANTE UM LONGO TEMPO LEITORES MODERNOS ESTAO INTERESSADOS NA HISTORIA DA POLITICA E DA ECONOMIA CONTUDO DEVEMOS LEMBRAR QUE TAMBEM SE PODE FALAR DE HISTORIA AMBITO DOS SENTIMENTOS E ATITUDES CONDICIONADOS POR UM CONJUNTO DE EXPERIENCES REAIS MANEIRA COMO OS GREGOS PASSADO REAGIAM COM CRIATIVIDADE EXIGENCES E DESAFIOS DE SEU PROPRIO TEMPO ISSO TAMBEM E HISTORIA ENQUADRADA NA NARRATIVA REGRESSO DE ODISSEU IDEIA PERSISTENTE DE QUE CADA PESSOA PRECISA DE UM LUGARK TOMADA COMO UM FATO SEM APOLOGIA SENTIMENTALISMO OU MELODRAMA NAS FICOES CRIADAS POR ODISSEU IE SS E QUE OUVIMOS FALAR DE HOMENS VAGANDO EM BUSCA APENAS DE AVENTURA SENTESE QUE POR BAIXO DA ELOQUENCE E DA ECONOMIA DA ODISSEIA EXISTE EXPERIENCE DE GERAOES DE GREGOS ANSIANDO POR UM LAR EXILADOS POLITICOS GUERRE IROS COLONIZADORES MARINHEIROS BARDOS ITINERANTES COMO OS TURBULENTOS SECULOS EM QUE SURGIRAM NUMEROSAS CIDADES ESTADOS GREGAS DE AC COINCIDENT COM DESENVOLVIMENTO DA POESIA EPICA E AINDA MAIS PLAUSIVEL QUE PLATEIAS SENTISSEM EMPATIA COM UMA HISTORIA DE VOLTA AO LAR COMO ESSA ERA SUA DESTILASAO DE SENTIMENTOS E CELEBRATE DA SOBREVIVENCIA MAIS QUE NA REPRESENTAFAO DE FATOS SOCIAIS E QUE EPOPEIA PRETENDE CONTAR VERDADES PASSADO OS DEUSES DE HOMERO OUTRA FACETA ATRAENTE DA EPOPEIA HOMERICA E RETRATO PERSUASIVO QUE ELA TRAFA DE UM MUNDO ALEM HUMANO OS DEUSES E DEUSAS DA GRECIA ARCAICA SAO COMO HUMANOS EM QUASE TUDO MENOS NUMA COISA NUNCA MORREM SEM IDADE E IMORTAIS ALIMENTADOS POR NECTAR E AMBROSIA COM IKHOR CRISTALINO CORRENDO NAS VEIAS EM VEZDE SANGUE OS DEUSES VIVEM TRANQUILOS NUMA CALMA DESANUVIADA NAS ALTURAS NEVADAS MONTE OLIMPO AO NORTE DA GRECIA PODEM TEORICAMENTE IGNORAR OS HUMANOS LIMITADOS PELA MORTE MAS NA IMAGINAAO GREGA OS DEUSES PRECISAM DAS PESSOAS TANTO QUANTO PESSOAS PRECISAM DELES OS POEMAS HOMERICOS REVELAM UM FASCINIO POR ESSE ELO SIMBIOTICO ENTRE DEUSES E MORTAIS UM CONTATO SEMPRE OSCILANTE ENTRE ADORAAO E ANTAGONISMO OS DEUSES SAO MUITO MAIS QUE UMA FANTASIA HOMERICA DURANTE MILENIOS OS GREGOS ADORARAM DIVINDADES MENCIONADAS NAS EPOPEIAS E MUITAS MAIS NAO HA COMO TER ALGUMA CERTEZA QUE DE FATO TINHAM EM MENTE AO FAZELO MAS SE TOMARMOS ODISSEIA COMO GUIA ERA ALGO ASSIM DEUSES SAO INQUISITIVOS INTROMETIDOS ORGULHOSOS DE SEUS HUMANOS FAVORITES E PERIGOSAMENTE SUSCETIVEIS DE SE ENRAIVECER PARA CONSERVAR SEU FAVOR OS MORTAIS PRECISAM OFERECER SACRIFICES CERTIFICARSE DE PREENCHER NARINAS CELESTES COM AROMA DA CAME ASSADA RITUAL DE VERTER VINHO ASSOCIADO ORAGAO TAMBEM FUNCIONA PARA APLACAR OS DEUSES HEROI LUTA PARA CONQUISTAR UNICA IMORTALIDADE ACESSIVEL HUMANOS FAMA EPICA KLEOS PARA TANTO PRECISA VENEER OBSTACULOS COM AJUDA DIVINA OU SER ESPETACULARMENTE DERROTADO AO DESPREZALA PODESE VER ODISSEU ENVOLVIDO NUMA QUESTAO RELIGIOSA TESTANDO EFICACIA DE SUA ATITUDE EM RELAAO AO DIVINO E DETERM INANDO PARA SI MESMO SE OS DEUSES VAO LHE DAR OUVIDOS E AJUDA LO DIVINO ESTA EM TODA PARTE EM HOMERO SUA POESIA E PROFUNDAMENTE TEOLOGICA UMA RAZAO PARA EPOPEIA SE DETER TANTO EM BANQUETES E BEBIDAS POR EXEMPLO E PORQUE ESSES EVENTOS SAO CRUCIAIS NA GRECIA ARCAICA CADA REFEIAO ERA TAMBEM UM ATO RELIGIOSO CADA AMANHECER E COM EFEITO OBRA DE UMA DEUSA AURORA LUA E SOL RIOS CAVERNAS E ARVORES SAO DEUSES OU ABRIGAM UM HABITANTE DIVINO NUM NIVEL EMOCIONAL MAIS PROFUNDO OUVIMOS AO LONGO DE TODA ODISSEIA QUE OS HUMANOS DESCENDEM EFETIVAMENTE DE ZEUS DE ARES OU DE POSEIDON ODISSEU HEROI DESSE POEMA TERN UMA NCESTR ALIDADE INTERESSANTE SEU AVO MATERNO AUTOLICO CUJO NOME SIGNIFICA PROPRIO LOBO E UM TRICKSTER E LADRAO QUE EM ALGUMAS VERSOES MITO ERA FILHO DE HERMES DEUS CONIVENTE VERSAO HOMERICA ABRANDA ESSE PASSADO SOMBRIO DEFENDENDO EM VEZDELA HISTORIA DE QUE HERMES ENSINOU AUTOLICO ARTE ROUBO ISSO LEVANTA QUESTAO DA MORALIDADE DOS DEUSES HOMERICOS NAO MUITO DEPOIS DE EPOPEIAS GANHAREM FORMA OS FILOSOFOS JA COME AVAM CRITICAR SUAS DIVINDADES DISSE UM MORALISTA SECULO VI XENOFANES HOMERO ATRIBUI AOS DEUSES TUDO QUE E MAIS VERGONHOSO ENTRE MORTALS ELES ROUBAM COMETEM ADULTERIO E ENGANAM UNS AOS OUTROS COMEGO SECULO IV AC PLATAO CHEGOU AO PONTO DE BANIR POESIA DE HOMERO DA CIDADE IDEALIZADA MORALMENTE INTEGRA QUE ESBOFA EM SUA OBRA REPUBLICA ASEU VER BOA ORDEM ESTADO ERA AMEAADA NAO QUANDO SEUS LLDERES LIAM RESPEITO E IMITAVAM OS PERSONAGENS QUE HOMERO APRESENTAVA COMO INCAPAZES DE CONTROLAR SUAS EMO OES ERA UM RISCO TAMBEM QUE SEUS HABITANTES ACREDITASSEM EM DIVINDADES MENOS QUE PERFEITAS OS DEUSES DE HOMERO PODEM CONSTITUIR PARADIGMAS ETICOS POBRES MAS MESMO ASSIM ENCARNAM VERDADES REAIS SAO DE FATO PODERES MAIORES QUE NOS EM AGAO MUNDO ESSES PODERES PARECEM CAPRICHOSOS E VEZES CRUEIS EMOPOES ASSOLADORAS DESEJO ARDENTE EMBRIAGUEZ IRA DA GUERRA DE ONDE MAIS ELAS PODERIAM VIR SENAO DE DEUSES CHAMAR ESSAS EXPERIENCES RESPECTIVAMENTE DE AFRODITE DIONISIO E ARES ERA DARLHES NOME MAS AO MESMO TEMPO CONTROLALAS POIS OS DEUSES UMA VEZHUMANIZADOS FUNCIONAM COMO UMA FAMILIA EXPANDIDA E UM TANTO DISFUNCIONAL NA QUAL EXISTE AO MENOS ALGUMA ORGANIZA AO GOVERNANDO ALTO ESTA ZEUS QUE IMPOE SUAS ORDENS COM RAIOS BRANCOS ARDENTES HADES E POSEIDON SEUS IRMAOS TERN SEUS LUGARES MAR E DEBAIXO DA TERRA OUTROS DEUSES E DEUSAS ALINHAMSE COMO FILHOS OU FILHAS DE ZEUS HA UMA BELA ECONOMIA EM TAL SISTEMA POLITEISTA UM DEUS EQUILIBRA OUTRO DE UM MODO QUASE COMICAMENTE DOMESTICO SE MAE HERA DIZNAO VOCE PODE PEDIR PARA PAI ZEUS HUMANOS CONSEGUEM QUE PEDEM REZANDO QUANTOS DEUSES DESEJAREM QUANDO SE TRATA DA ODISSEIA ATENA MERECE ATEN ESPECIAL EMBORA NAO SE SAIBA DA HISTORIA POR HOMERO NASCIMENTO FORA COMUM DA DEUSA VIRGEM FILHA DE METIS ASTUTA INTELIGENCIA E BEM CONHECIDO PODEMOS QUESTIONAR POR QUE ESSA DEUSA DAS HABILIDADES INCLUSIVE HABILIDADE DA GUERRA FICA TAO LIGADA AO MODESTO MORTAL ODISSEU EM PRIMEIRO LUGAR AO QUE PARECE PORQUE ELE E COMO ELA DE FATO SEU EPITETO USUAL E POLIMETIS LITERALMENTE POSSUIDOR DE GRANDE INTELIGENCIA ASTUTA ENTANTO SENTESE UM ELEMENTO DE COMPETIAO RELACIONAMENTO DELES UMA CONVERSA REVELADORA ENTRE DEUSA E PROTEGIDO OCORRE CANTO QUANDO ODISSEU ACABOU DE VOLTAR SUA ILHA ERA RESPOSTA SUA CONVENIENTE FICAO SOBRE COMO CHEGOU EM CASA ATENA RESPONDE COM UMA REPREENSAO AMIGAVEL E UM TOQUE DE ORGULHO NAO IAS NEM MESMO ESTANDO EM TUA TERRA CESSAR OS ENGODOS E DISCURSOS FURTIVOS QUE FUNDO TE SAO CAROS VAMOS NAO FALEMOS MAIS DISSO AMBOS CONHECEMOS MANEIOS POIS ES DE LONGE MELHOR DE TODOS OS MORTALS EM PIANOS E DISCURSOS E EU ENTRE TODOS OS DEUSES NA ASTUCIA FAMOSA E NOS MANEIOS VERSOS MUITAS HISTORIAS MITICAS CONTAM DE HUMANOS QUE DESAFIARAM OS DEUSES E PERDERAM ENTAO PARTE SUSPENSE DA ODISSEIA DEVE BROTAR PRECISAMENTE DESSA PERIGOSA COLABORAAO ENTRE DIVINO E MORTAL ODISSEU IRA DE ALGUMA FORMA ULTRAPASSAR LINHA ELE SERA BOM PONTO DE CONQUISTAR ADMIRAFAO E AJUDA DA DEUSA OU SE GABA DEMAIS DA PROPRIA HABILIDADE CORRENDO RISCO DE DESPERTAR CIUME DE ATENA E CORTEJAR ABANDONO OU MORTE NA ODISSEIA ZEUS SEU IRMAO POSEIDON E SUA FILHA ATENA SAO PODERES MAIS QUE ARBITRARIOS OU INDEPENDENTES POETA DESDE COMEO DA EPOPEIA ENFATIZA COMPLEXAS REDES E REPERCUSSOES FAMILIARES ENVOLVIDAS QUANDO ESSAS TRES DIVINDADES SE IMISCUEM EM QUESTOES DE JUSTA HUMANA ZEUS DEUSCHEFE E RESPONSAVEL POR MANTER JUSTIA EM NIVEL COSMICO SE ALGUEM GREGO OU TROIANO E MALTRATADO ZEUS PODE SER INVOCADO PARA TESTEMUNHAR ULTRAJE E TOMAR AFAO CORRETIVA ELE VEZES USA SEUS RAIOS EXPLOSIVOS AO MESMO TEMPO TANTO ATENA COMO POSEIDON TEM RECLAMAFOES CONTRA OS GREGOS POR INJURIAS PESSOAIS DESSACRALIZAAO TEMPLO TROIANO DE ATENA E CEGAMENTO CICLOPE POLIFEMO FILHO DE POSEIDON ENTAO ZEUS ENQUANTO MANTEM ORDEM MUNDO TEM DE TRABALHAR TAMBEM HARMONIA OLIMPO ESSE RESPEITO AVENTURAS DE ODISSEU LEVAM OS DEUSES UMA NOVA COMPREENSAO DE SUAS LIMITAOES E INTERDEPENDENCE ASSIM UM HUMANO QUE RESPEITA RELIGIAO PODE ALTERAR CONFIGURAOES DIVINO NESSE SENTIDO DE ETICA HUMANA E DIVINA ODISSEIA EM ESPECIAL E DIFERENTE DE NARRATIVAS DE VINGANA MAIS SIMPLES ESTA EPOPEIA NAO TRATA DE VINGANA BRUTAL OU VIOLENCIA GRATUITA AO LONGO DE TODO POEMA JUSTEZA DE ATOS IMPORTANTES HUMANOS OU DIVINOS E CUIDADOSAMENTE ANALISADA DEBATIDA E AVALIADA DISPUTAS SAO DISCUTIDAS E PESADAS PELAS VARIAS FIGURAS ENVOLVIDAS JA SE PODE VER EM AAO ESPIRITO ANALITICO QUE IMPREGNA EXAME QUE PLATAO FAZ DA J USTIGA EM SEU DIALOGO REPUBLICA SECULOS DEPOIS PRIMEIRA VISTA MUNDO DA ODISSEIA PODE PARECER SEM LEI SEUS HABITANTES CLARAMENTE VIVEM SEM REGRAS FORMAIS ESCRITAS ESTABELECIDAS E IMPOSTAS POR AUTORIDADES LEGAIS MAS JUSTIA NAO DEPENDE DE LEIS DE FATO PALAVRA GREGA DIKE COM FREQUENCIA TRADUZIDA COMO JUSTIA ESTA MAIS PROXIMA DE IDEIAS COMO COSTUME HABITO E ADEQUAO JEITO COMO ESTAO COISAS NORMALMENTE QUANDO FAMILIA COMUNIDADE E MUNDO ESTAO EM ORDEM E JEITO COMO COISAS DEVEM ESTAR E ISSO NAO DEPENDE DA ADESAO ALGUM CODIGO EXTERNO DE COM PORTAMENTO DIKE NESSE SENTIDO GREGO ARCAICO PODE MESMO SER DESCRITA COMO OBRA DA NATUREZA QUANDO POR EXEMPLO ODISSEU ENCONTRA SUA MAE MUNDO INFERIOR E NAO PODE ABRAALA ELA LHE DIZQUE ESSE E JEITO DIKE DE MORTAIS QUANDO MORREM TEREM SUAS ALMAS VOANDO EMBORA COMO UM SONHO ENQUANTO CORPO E QUEIMADO ANIMAIS TAMBEM PODEM TER DIKE MAS TANTO HUMANOS COMO ANIMAIS VEZES ULTRAPASSAM OS LIMITES DESSA JUSTIA NATURAL ELES FAZEM QUANDO PERTURBAM ORDEM DAS COISAS SEJA SE RECUSANDO DAR AOS OUTROS QUE LHES E DE DIREITO SEJA POR TENTAR TIRAR OS BENS OU HONRA DE OUTREM ESSAS AOES AO CONTRARIO DE DIKE SAO CHAMADAS EM GREGO DE HUBRIS NA ODISSEIA OS PRETENDENTES DE PENELOPE ENCARNAM COM PORTAMENTO DA HUBRIS ELES NAO ESTAO ROMPENDO NORMAS DA HOSPITALIDADE PARTE IMPORTANTE DA DIKE COMO CORTEJAM COM ARROGANCIA RAINHA SEM LEVAR EM CONTA PRECEDENTES VERDADE OU COSTUME ELES ARRUINAM CASA E DESONRAM SEUS HABITANTES ODISSEU AO CONTRARIO AO LONGO DE TODO POEMA EMPREGA SUA SABEDORIA NATURAL PARA SE ADAPTAR MANEIRA DAS COISAS E VONTADE DOS DEUSES E ISSO MAIS QUE SUA PIEDOSA INTEGRIDADE QUE TORNA JUSTO EM TERMOS HOMERICOS SUA VITORIA MIRACULOSA SOBRE OS PRETENDENTES E UMA CONFIRMAO DE QUE ZEUS E OS DEUSES OLIMPICOS CONSERVAM EQUILIBRIO MUNDO ULTRAPASSAR OS LIMITES ACABA ATRAINDO RETALIAAO ODISSEU E AGENTE DESSA JUSTIA DIVINA PARA APRECIAR POR COMPLETO POSTURA ETICA DA ODISSEIA PODE SER UTIL CONHECER ALGO MAIS SOBRE ELO ENTRE JUSTIA E HOSPITALIDADE NA GRECIA ANTIGA OS CONCEITOS DE ANFITRIAO HOSPEDE E ESTRANHO SAO EXPRESSOS POR UMA UNICA PALAVRA XENOS AIDEIA UNIFICADA TAO DIFERENTE DA FORMA COMO NOS DISTINGUIMOS OS TRES CONCEITOS PODE SER VISTA EM AAO AO LONGO DE TODA ODISSEIA COM INSISTENCIA POEMA POE EM PRIMEIRO PIANO TEMA DA XENIA RELAO HOSPEDEANFITRIAO TRAMA SE DESENROLA EM FUNO DESSA IDEIA E OS PERSONAGENS CICLOPE ATE OS PRETENDENTES SAO JULGADOS PELA MANEIRA COMO EXERCEM IDEAL TRATAMENTO ADEQUADO ESTRANHOS XENIA EM RESUMO REPRESENTA EPITOME DA MORALIDADE DA ODISSEIA NAO E DE SURPREENDER QUE NUMA CULTURA ARCAICA PREALFABETIZADA ONDE NAO HAVIA INSTITUTES INTERNACIONAIS OU NORMAS RECONHECIDAS COMPORTAMENTO CORRETO EM RELAO ESTRANHOS FOSSE CONSIDERADO OBRIGAAO SAGRADA MESMO FENOMENO PODE SER OBSERVADO AINDA HOJE EM CULTURAS PEQUENAS E ISOLADAS ESSA ERA COM EFEITO UNICA MANEIRA PELA QUAL INDIVIDUOS PODIAM SOBREVIVER ALEM DOS LIMITES DE SUA COMUNIDADE LOCAL ZEUS TINHA UM TITULO ESPECIAL XENIOS PARA DENOTAR SEU PAPEL COMO PROTETOR DE ESTRANGEIROS QUALQUER INFRAAO ERA POIS UMA OFENSA CONTRA DEUS SUPREMO XENIA REPRESENTA UM EXEMPLOCHAVE DE UMA EXIGENCIA CULTURAL MAIOR DE RECIPROCIDADE PODESE VER ESSE GRANDE PRINCIPIO EM AAO NUMA SERIE DE OUTRAS AREAS MENCIONADAS NOS POEMAS HOMERICOS SACRIFICIO DE ANIMAIS ORAOES E GUERRA ERAM BASEADOS NA IDEIA DE QUE ESSE EQUILIBRIO TINHA DE SER MANTIDO DANDO OU RETRIBUINDO FAVORES OU HOSTILIDADE FOSSE ENTRE HUMANOS OU ENTRE HUMANOS E DEUSES EXPECTATIVAS RECIPROCAS SUBJACENTES XENIA PODEM EXPLICAR SEMANTICA TERMO ASSIM COMO QUALQUER ESTRANHO ERA UM HOSPEDE EM POTENCIAL E TINHA DE SER TRATADO COMO TAL QUALQUER HOSPEDE ERA POR IMPLICAAO UM ANFITRIAO EM POTENCIAL UMA VEZQUE SE ESPERAVA QUE ELE RETRIBUISSE QUALQUER TRATAMENTO QUE HOUVESSE RECEBIDO TODA SAGA DA GUERRA DE TROIA PODE SER INTERPRETADA COMO UM EXEMPLO MITICO DAS CATASTROFES PRODUZIDAS POR REDOES IMPROPRIAS ENTRE ANFITRIAO E HOSPEDE PARIS JOVEM PRINCIPE TROIANO ERA HOSPEDE DE MENELAU EM ESPARTA QUANDO FUGIU COM ESPOSA ANFITRIAO HELENA OS COMANDANTES GREGOS QUE HAVIAM JURADO AJUDAR MENELAU FORAM OBRIGADOS VINGAR ESSE CRIME CONTRA XENIA ATE EXTREMO DE CERCAR E ARRASAR TROIA DESSA FORMA MITO FUNCIONA COMO UM PRECEDENTE LEGAL JUSTIFICANDO PRATICAS SOCIETARIAS POR REFERENDA UM CASO AVOLTA DE ODISSEU DESDE TROIA E PORTANTO CONTINUAAO DE UMA LIAO DE MORAL ACERCA DA NECESSIDADE DE MANTER EQUILIBRIO NA INTERSECFAO DOS NIVEIS SOCIAL E COSMICO SE ODISSEU E BEM TRATADO ESTA TUDO BEM MUNDO AIMPORTANCIA DE UM TEMA ASSIM COMO MAIORIA DAS AOES SOCIAIS SIGNIFICATIVAS NA ODISSEIA PODE SER MEDIDA PELA QUANTIDADE DE VEZES QUE TEMA REAPARECE ALEM DISSO REPETIAO VEM NA FORMA DE ROTEIROS ESTILIZADOS QUASE PREVISIVEIS QUE OS HOMERISTAS CHAMAM DE CENAS TIPICAS E DIFICIL DIZER SE OS ROTEIROS SAO RECURSOS POETICOS OU RITUAIS SOCIAIS UM REFORA OUTRO TIPICO E ESTRANGEIRO SER BEM RECEBIDO COM PALAVRAS GENTIS COM OFERTA DE UM BANHO E ROUPAS LIMPAS COMIDA E BEBIDA E SEM PERGUNTAS ENQUANTO NAO FOREM CUMPRIDAS ESSAS PRELIM INARES ELE E ESTIMULADO FICAR QUANTO QUISER AO PARTIR LHE SAO FORNECIDOS TRANSPORTE E PRESENTES ESSES PRECIOSOS ITENS DE TROCA CONSTITUEM UMA COMBINAAO DE SUVENIR E DECLARAAO PARA MUNDO DA EXCELENCIA COMPORTAMENTO ANFITRIAO PORQUE XENIA ASSIM COMO TUDO MAIS NA CULTURA GREGA PODIA SE TORNAR COMPETITIVA SE GUERREIROS COMO ODISSEU PODEM SE TRANSFORMAR EM PARADIGMAS DE UM COMPORTAMENTO QUE DIVINDADE APROVA NAO E DE SURPREENDER QUE MORTAIS ESPECIAIS POSSAM OBTER UM LUGAR SEPARADO DE OUTROS HUMANOS MAIS PROXIMO DOS DEUSES EM TERM OS DE CELEBRIDADE E PODER AIDEIA HEROI COMO ALGUEM ENTRE HOMEM E DEUS E UMA INVENAO ESPECIFICAMENTE GREGA POR TODO MUNDO GREGO OS TUMULOS DE HOMENS E MULHERES QUE OBTIVERAM FAMA NA COMUNIDADE ERAM LOCAIS DE ADORAAO DESDE PELO MENOS SECULO VIII AC ATE MESMO NA ERA CRISTA VALE NOTAR QUE NEM TODOS ERAM DE JEITO NENHUM HEROICOS SENTIDO CORRENTE DE HOJE OS HERDS E HEROINE NAO ERAM SERES PRIMORDIALMENTE MORAIS MAS SIM PESSOAS DE GRANDE FORA OU DE CONEXOES ESPECIAIS COM DIVINO PODER DE AMALDIOAR OU CAUSAR DANO OUTROS MARCAVA STATUS DE HEROI TANTO QUANTO CORAGEM EM PROL DA SOCIEDADE ESSE ERA LADO ESCURO PODER DE FAZER BEM OU CURAR HERACLES CUJAS AVENTURAS LEVARAM POR TODO MUNDO CONHECIDO COMBINAVA DE MANEIRA CONSPICUA CORAGEM GUERREIRO COM SEU COMPORTAMENTO ANOMALO FURIOSO MESMO VEZES DESCULPADO COMO LOUCURA ENVIADA POR SUA NEMESIS HERA ELE MORREU MAS PARADOXALMENTE VIVEU PARA SEMPRE AO SER LEVADO PARA OLIMPO DEPOIS DE SUA MORTE FEROZNO MONTE ETA SUA HISTORIA PODE SER TOMADA COMO UM PARADIGMA PARA OUTRAS HEROI LUTA GOVERNA MUITAS VEZES PECA MORRE E GANHA FAMA POSMORTE UMA FORMA DE IMORTALIDADE AO LADO DE SEU PODER SEMIDIVINO MESMO PARRICIDA EDIPO ERA ASSOCIADO HONRAS HEROICAS EM DIVERSOS LUGARES PEA EDIPO EM COLONO DE SOFOCLES CONTA DA LUTA ENTRE ATENAS E TEBAS NA DISPUTA PELO PREMIO DE ABRIGAR SEU TUMULO DENTRE AQUELES ASSOCIADOS SAGA DE TROIA FIGURAS COMO AQUILES MENELAU AGAMEMNON E DIOMEDES ERAM ADORADOS COM RITOS DE SACRIFICIO ESPECIFICOS CULTO AOS HEROIS EM SANTUARIOS POR TODO EGEU OS ASPECTOS PERIGOSOS HEROI PODEM SER EM PARTE VISLUMBRADOS NAS HISTORIAS SOBRE CADA UM DESSES HOMENS TANTO DENTRO DAS EPOPEIAS HOMERICAS QUANTO ALEM DELAS AFURIA SAGRADA DE AQUILES QUE CAUSOU DESTRUIAO DE SEUS PROPRIOS COMPANLIEIROS NA GUERRA BEM COMO SUA CAPACIDADE GUERREIRA CONTRA OS TROIANOS COMPROVAVA SEUS PODERES HEROICOS CENTENAS DE OUTROS HEROIS MUITOS DELES DESCONHECIDOS GERAL SAO NOMEADOS EM OUTRAS FONTES LITERARIAS OU EM INSCRIFOES UMA VEZQUE CADA COMUNIDADE DE ALGUMA IMPORTANCIA PODIA EXIBIR SEU HEROI LOCAL OS PRETENSOS TUMULOS DE HEROIS E HEROINAS ATRAIAM PESSOAS EM BUSCA DA BENAO E PROTEAO QUE ANCESTRAIS ASSIM PODEROSOS PODERIAM PROVEN TRABALHOS ARQUEOLOGICOS RECENTES DEMONSTRAM QUE EM MUITOS CASOS ESSES CULTOS COMEFAVAM EM TUMBAS REAIS DE PESSOAS DA ERA MICENICA TALVEZLOCAIS REDESCOBERTOS SECULO VIII E DEPOIS NIVEL CIVIL FIGURAS HEROICAS ERAM MUITAS VEZES PIONEIROS FUNDADORES DE UMA CIDADE OU COLONIA E ASSIM CONSTITUIAM EPITOMES DA HISTORIA E DAS AMBIFOES DE UMA COMUNIDADE FATO DE LIDERES DE EXPEDSES COLONIZADORAS SEREM POR VEZES ASSASSINOS FUGITIVOS EM NADA DIMINUIA SUA HEROICIZAAO HISTORIA DE ODISSEU UNE DIVERSOS DESSES TRAS PRIMEIRO HA INDICIOS DE QUE ERA ADORADO COMO HEROI EM ITACA COM CONSAGRAAO DE TRIPODES ARCAICOS FEITA NUMA CAVERNA PERTO DA BAIA POLIS DATA DA SAGRAO E DISCUTIVEL SECULO VIII OU III AC SEGUNDO SECULO VI AC E MUITO PROVAVELMENTE ANTES TEOGONIA DE HESIODO ATRIBUIA ODISSEU DOIS FILHOS COM CIRCE CHAMADOS LATINO E AGRIO QUE AFIRMAVASE TEREM GOVERNADO J UNTO COM TELEMACO OS ETRUSCOS OCIDENTE EM OUTRAS PALAVRAS ODISSEU ERA AO MESMO TEMPO HEROI E PAI DE HEROIS COLONIZADORES POR FIM EM SUA FURIA JUSTIFICADA CONTRA OS PRETENDENTES ODISSEU SE ASSEMELHA SEU RIVAL AQUILES COMO EXPOENTE DE IRA DIVINA PERSONAGEME TRIANGULO DOMESTICO ODISSEIA CONTEM DEZENAS DE PERSONAGENS PARTE ENCANTO POEMA EST EM SUA CAPACIDADE DE CRIAR UM MUNDO FICTICIO REALISTA POVOADO NAO APENAS POR HEROIS MAS POR ESCRAVOS E CRIADOS QUE OS SERVEM PASTORES E COCHEIROS ALEM DE BARDOS E VIDENTES SEGUNDO UM IMPORTANTE TRATADO SOBRE ARTE LITERARIA SUBLIME ATRIBUIDO CERTO LONGINO E PRESUMIVELMENTE ESCRITO SECULO DE NOSSA ERA OS ESBOS DE VIDA COTIDIANA DA CASA DE ODISSEU CONSTANTES POEMA ERAM COMEDIA DE COSTUMES IX KOMOIDIA TIS ESTIN ETHOLOGOUMENE APESAR DE TODA PROFUSAO DE PERSONAGENS POEMA PERMANECE FOCADO EM TORNO DE TRES MORTAIS ODISSEU SEU FILHO E SUA ESPOSA PAPEL DE TELEMACO COMO UM FOCO DA NARRATIVA E FIGURA PROXIMA PUBLICO JA FOI MENCIONADO MAS QUE DIER DE SEUS PAIS UM FOLCLORISTA CLASSIFICARIA ODISSEU PROTAGONISTA COMPACTO RIJO QUE DERROTA GRANDES FERAS COMO AQUELA FIGURA UNIVERSAL TRICKSTER ESSES PERSONAGENS BROTAM DA PROFUNDIDADE DOS MITOS TRICKSTERS BEM CONHECIDOS DOS NATIVOS NORTEAMERICANOS E DA AFRICA PERSONAGENS COMO ARANHA CORVO OU COIOTE DAO FORMA MANEIRA COMO COSMOS E ORGANIZADO CRIANDO NOVAS TERRAS OU INVENTANDO HABILIDADES OU ELEMENTOS ESSENCIAIS COMO TECELAGEM OU FOGO HERMES EM ALGUMAS VERSDES UM ANCESTRAL DE ODISSEU SE ENCAIXA NESSE ASPECTO HINO HERMES MOSTRA SUA INVENAO SACRIFICIO POR EXEMPLO ENQUANTO ODISSEU APRESENTA QUALIDADE DE TRICKSTER NUMA DIMENSAO MAIS HUM ANA ASSIM COMO FIGURAS FOLCLORICAS ELE ESTA ASSOCIADO COMIDA COMO MENDIGO ESFAIMADO OU SENHOR QUE DA VINHO AOS CIC LOPES BEM COMO UNICO GUERREIRO DA ILIADA INSISTIR COM AQUILES PARA QUE COMA ANTES DA BATALHA COMO TRICKSTER ELE E CONHECIDO PELAS REDOES COM MULHERES E COM PORTAMENTO LUBRICO SUAS AVENTURAS MUITAS VEZES ENVOLVEM ANIMAIS ELE PROPRIO NAO E BESTIAL MAS GOZA MESMO ASSIM DE UM STATUS LIMITROFE POR VEZES NA FRONTEIRA ENTRE MUNDO HUMANO E NATURAL PODESE LER SEU PERSONAGEM COMO UM AVAN ALEM DA AMORALIDADE TRICKSTER COMO ELE SABE MUITO SOBRE COMIDA PODE TAMBEM RESISTIR TENTAOES CF GADO DE SOL E COMO SABE MUITO SOBRE MULHERES TAMBEM PODE RESISTIR CIRCE E CALIPSO AO MENOS FINAL ODISSEU ENCARNA EXIGENCIAS MAIS RIGIDAS ETHOS HEROICO EMBORA POSSA SER EXCESSIVO CHAMA LO DE TRICKSTER ETICO ODISSEIA POREM E MAIS QUE UMA NARRATIVA PICARESCA SOBRE UM HEROI TRICKSTER AMUDANA FUNDAMENTAL FOLCLORE PARA EPICO OU DIRIAM ALGUNS PROTORROMANCE DEPENDE DA DECISAO POETA DE CRAVAR ODISSEU NUM CONJUNTO DE RELACIONAMENTOS COM OUTROS PERSONAGENS UM AMBIENTE RARO PARA TRICKSTER EM GERAL UM LOBO SOLITARIO ODISSEIA INSISTE NESSAS CONEXOES SOCIAIS POR SUA PROPRIA ESTRUTURA ENTRELAANDO HISTORIAS DE TELEMACO E PENELOPE COM DE ODISSEU E EMOLDURANDO TODO DENTRO MOTIVO DE UMA FAMILIA QUE COM CAUTELA AVANA AO ENCONTRO DESTINO VALE PENA APONTAR AINDA QUE VOLTA AO LAR NOSTOS DE ODISSEU E UMA VOLTA AO MESMO TEMPO PESSOAL E SOCIOPOLITICA ISSO TORNA ODISSEIA MAIS COMPLEXA E REALISTA QUE UM SIMPLES ROMANCE SOBRE UM CASAL QUE SE REENCONTRA DE FATO QUANDO OUVIMOS FALAR DE ODISSEU PELA PRIMEIRA VEZNO POEMA PENELOPE AINDA NEM FOI MENCIONADA ELE ESTA SENTADO NA PRAIA DA ILHA DE CALIPSO DESEJANDO VER FUMAA DA CHAMINE DE SEU LAR UM ENRAIZAMENTO E SEGURANA MAIS AMPLOS ESTAO EM QUESTAO COM SUA VOLTA ODISSEU PRECISA DE SEU LUGAR PADRAO SOCIAL COMO REI GUERREIRO ARISTOCRATA PAI MARIDO FILHO TANTO QUANTO ANSEIA PELA INTIMIDADE PRIVADA COM ESPOSA POR OUTRO LADO SEU REENCONTRO COM PENELOPE RENOVA TODA ITACA ATE MESMO LAERTE SEU PAI REJUVENESCE E QUANDO POEMA TERMINA TRES GERAOES ESTAO JUNTAS UMA IMAGEM IDEAL DE CONTINUIDADE E REGENERAAO ISSO QUER DIZER ENFIM QUE CARATER DE ODISSEU POEMA E UMA FUNO DE SUA ABERTURA SUA HABILIDADE DE SE PERMITIR CONFIAR EM OUTROS POUCOS COMO NAUSICAA DE PERDER AO MENOS UM POUCO DA DESCONFIANA SOLITARIO ENGODO E ESPIRITO DE SOBREVIVENCIA LEGADO TRICKSTER PERM ITEM QUE ELE CHEGUE EM CASA ONDE IMAGINAAO EMPATIA E UMA SENSAAO DE RESPONSABILIDADE MAIS AMPLA COMPLETAM SUA REINTEGRAAO MESMO DEPOIS DE VINTE ANOS DE AUSENCIA E QUE DIZER DA MULHER QUE ESPEROU TODOS ESSES ANOS FINAL DA ODISSEIA SENTIMOS QUE HEROISMO FEMININO E TAO IMPORTANTE SENAO MAIS QUE MASCULINO HEROISMO DE PENELOPE ASSUME UMA FORMA QUE WILLIAM FAULKNER IDENTIFICARIA MILENIOS DEPOIS ENTRE OS SOBREVIVENTES SUL TORTURADO DOS ESTADOS UNIDOS UMA CALADA CAPACIDADE DE SUPORTAR NAO PODEMOS SEPARAR CARACTERIZAAO DE PENELOPE CUIDADOSO TRATAMENTO POETA COM MULHERES EM GERAL MULHERES POEMA SAO MUITO FASCINANTES PORQUE SEUS RETRATOS TENDEM SE SOBREPOR E RESSOAR PENELOPE E NINFA CALIPSO SAO AMBAS TECELAS E CRIADORAS COM UMA LIGAAO PROFUNDA COM ODISSEU HELENA PARECE CIRCE EM SEU CONHECIMENTO DE DROGAS E SEUS EFEITOS SOBRE OS HOMENS ARETE RAINHA DOS FEACIOS GOVERNA CASA DA ILHA ASSIM COMO PENELOPE ELA ASSIM COMO SUA FILHA NAUSICAA E NINFA LEUCOTEIA REVELAMSE BENFEITORAS DURANTE BUSCA HEROI E CLARO ATENA ASTUTA E SABIA PROTETORA DE ODISSEU ASSUME ALGO DE TODOS ESSES PAPEIS FEMININOS COMO DIRETORA DE CENA DA TRAMA E TRAA VOLTA HEROI ODISSEU PARECE TAO INTIMAMENTE LIGADO ELA COMO SUA SOFREDORA ESPOSA DADA SUA IMPORTANCIA UMA TEORIA SOBRE ORIGEM POEMA SUGERE QUE ODISSEIA FOI REGISTRADA POR ESCRITO EM ATENAS ESPECIFICAMENTE EM HONRA DA PADROEIRA DIVINA DAQUELA CIDADE SAO TANTOS E TAO ARTISTICOS OS RETRATOS DE MULHERES FORTES E FASCINANTES NA ODISSEIA QUE MAIS DE UM CRITICO PROPOS QUE POEMA TIVESSE SIDO COMPOSTO PARA UMA PLATEIA PREDOMINANTEMENTE FEMININA INDO UM POUCO MAIS LONGE ROMANCISTA INGLES SAMUEL BUTLER PUBLICOU EM AUTHORESS ODYSSEY AAUTORA DA ODISSEIA QUAL SUGERE QUE UMA MOFA ESCREVEU EPOPEIA ALGUEM COMO NAUSICAA SABENDO TIPO DE RECEPAO QUE SEU LIVRO BASTANTE IRONICO RECEBERIA DOS HOMERISTAS VERDADEIROS DE SEU TEMPO BUTLER DIVAGOU ASSIM SERA QUE OS EMINENTES ESTUDIOSOS HOMERICOS ENCONTRARAM TAMANHA SERIEDADE NAS PARTES MAIS HUMORISTICAS DA ODISSEIA PORQUE ELES TERIAM COLOCADO SERIEDADE ALI PARA OS SERIOS TUDO E SERIO AVISAO DE BUTLER INFELIZMENTE VEM CARREGADA DE UMA DOSE DE SEXISMO VITORIANO PARA ELE OS INDICIOS DE UM AUTOR FEMININO ERAM DADOS POR TRAS DA ODISSEIA COMO UM TOM MAIS LEVE UM INTERESSE NARRATIVO EM DINHEIRO E EM MENTIRAS E EM CERTA CONFUSAO NA DESCRIAO CORDAME DOS NAVIOS ELE OBSERVOU COM CORREO QUE NINGUEM RI DAS MULHERES NA ODISSEIA MESMO QUE PESSOAS RIAM COM BASTANTE FREQUENCIA NA ODISSEIA COMO UM TODO VINTE E TRES VEZES CONTRA ONZE VEZES NA ILIADA QUE BUTLER E OUTROS CARACTERIZARAM COMO UMA DIFERENA DE VISOES DE GENERO NOS DOIS POEMAS PODE TER MAIS VER COM TEMA E CONTEUDO ODISSEIA PARECE SER MUITO MAIS HUMANA PRATICA E PRAGMATICA MAIS INTERESSADA COTIDIANO QUE NAQUILO QUE E EXCLUSIVAMENTE HEROICO MAIS RELIGIOSA SENTIDO DE QUE MOSTRA IMANENCIA DIVINO E OS DEUSES MOLDANDO UM FINAL FELIZ E MAIS ESPERANSA QUE ILIADA AO MENOS NA SUGESTAO DE QUE E POSSIVEL VOLTAR PARA CASA SE ISSO REFLETE UM PONTO DE VISTA FEMININO DEPENDE E EVIDENTE DE COMO DETERM INADA CULTURA CONCEITUA GENERO E INEGAVEL QUE OS TRAFOS MAIS SOFISTICADOS DE CARACTERIZAFAO E INSIGHT PSICOLOGICO NA ODISSEIA TEM COMO CENTRO UMA MULHER PENELOPE DECORRER POEMA NOS VEMOS COMO MAE ANSIOSA LIDANDO COM UM FILHO QUE ATINGE MAIORIDADE COMO ESPOSA FIEL SAUDOSA MARIDO AUSENTE HA VINTE ANOS COMO CHEFE DE UMA CASA REAL DE GRANDE DIMENSAO E COMO OBJETO DESEJO DE UMA MULTIDAO DE JOVENS PRETENDENTES DETERMINADOS DE FATO HISTORIA E TANTO SOBRE PENELOPE QUANTO SOBRE ODISSEU EM SUA INTELIGENCIA E FIRMEZA ELA PERMITE QUE ELE SOBREVIVA UMA VEZ EM CASA E E SEU ASTUTO TESTE FINA
[...]
ALITERSES FILHO DE BUSCADOR UNICO QUE VIA PASSADO E FUTURO REFLETINDO BEM ENTRE ELES TOMOU PALAVRA E DISSE OUVI AGORA DE MIM ITACENSES QUE VOU FALAR POR CAUSA DE VOSSA VILEZA ESSES FEITOS OCORRERAM NAO VOS PERSUADI NEM MENTOR PASTOR DE HOMENS FAZER VOSSOS FILHOS INTERROMPER LOUCURA ELES QUE FEITO INAUDITO FIZERAM COM INIQUIDADE VIL DEVASTANDO POSSES E DESONRANDO ESPOSA DE NOBRE VARAO AFIRMAVAM QUE NUNCA RETORNARIA AGORA ASSIM OCORRA QUE EU VOS PERSUADA QUE DIGO NAO VAMOS QUE NINGUEM ACOMETA UM MAL AUTOINFLIGIDO ASSIM FALOU E UM GRUPO SE ERGUEU COM GRANDE ALARIDO MAIS DA METADE OS OUTROS J UNTOS LA MESMO FICARAM UNS NAO AGRADOU DISCURSO J UIZO MAS PERSUASIVO PERSUADIU OUTROS QUE LOGO SE APRESSARAM RUMO ARMAS MAS APOS VESTIREM BRONZE LAMPEJANTE SOBRE PELE EM CONJUNTO REUNIRAMSE DIANTE DA ESPAOSA CIDADE ELES PERSUASIVO PASSOU LIDERAR EM SUA TOLICE PENSOU QUE PUNIRIA ASSASSINATE FILHO MAS NAO IRIA DE NOVO RETORNAR E LA MESMO ALCANARIA SEU DESTINO E ATENA ZEUS FILHO DE CRONO DIRIGIUSE NOSSO PAI FILHO DE CRONO SUPREMO ENTRE PODEROSOS DIGA MIM QUE INQUIRO QUE TUA IDEIA DENTRO CONTEM GUERRA DANOSA ULTERIOR E COMBATE TERRIVEL ARRANJARAS OU IMPORAS AMIZADE ENTRE OS DOIS LADOS RESPONDENDO DISSELHE ZEUS JUNTANUVENS MINHA FILHA POR QUE ISSO PERGUNTAS E APURAS BEM ESSA IDEIA NAO PONDERASTE TU MESMA QUE DELES ODISSEU SE VINGASSE AO CHEGAR FAZCOMO QUISERES MAS DIGOTE QUE CONVEM JA QUE AOS PRETENDENTES CASTIGOU DIVINO ODISSEU QUE ELE APOS FIRMAREM PACTO CONFIAVEL REINE SEMPRE E NOS QUANTO MATANA DE FILHOS E IRMAOS IMPONHAMOS OLVIDO QUE SEJAM ELES AMIGAVEIS ENTRE SI COMO ANTES E QUE HAJA RIQUEZA E PAZEM ABUNDANCIA ISSO DISSE E INSTIGOU ATENA QUE JA ANSIAVA ANTES E ELA PARTIU TENDOSE LANADO DOS CUMES OLIMPO APOS ESTES APAZIGUAREM DESEJO POR COMIDA ADOAJUIZO ENTRE ELES TOMOU PALAVRA MUITATENENCIA DIVINO ODISSEU ALGUEM DEVERIA SAIR E VER TEMO QUE ESTEJAM PERTO ASSIM FALOU E FILHO DE FINORIO SAIU COMO PEDIU POSTOUSE NA SOLEIRA E VIU PERTO TODOS AQUELES DE PRONTO ODISSEU DIRIGIU PALAVRAS PLUMADAS ELES J ESTAO AI PERTO ARMEMONOS BEM LIGEIRO ASSIM FALOU E ELES APRESSARAMSE E VESTIRAM ARMAS QUATRO EM VOLTA DE ODISSEU E OS SEIS FILHOS DE FINORIO ENTRE ELES LAERTE E FINORIO VESTIRAM ARMAS EMBORA FOSSEM GRISALHOS GUERREIROS PELAS CIRCUNSTANCIAS MAS APOS SOBRE PELE VESTIR BRONZE LAMPEJANTE ABRIRAM PORTAS SE FORAM E CHEFIAVA ODISSEU E ACHEGOUSE DELES FILHA DE ZEUS ATENA SEMELHANTE MENTOR CORPO E NA VOZHUMANA VENDOA ALEGROUSE MUITATENENCIA DIVINO ODISSEU E DE PRONTO FALOU TELEMACO SEU CARO FILHO TELEMACO AGORA ISTO ENTENDERAS TU MESMO CHEGANDO ONDE OS MELHORES ENTRE OS VAROES COMBATENTES SE MEDEM NAO AVILTAR LINHAGEM DOS ANCESTRAIS QUE TAMBEM ANTES NA BRAVURA E VIRILIDADE EXCELEMOS SOBRE TODA TERRA ELE ENTAO INTELIGENTE TELEMACO RETRUCOU VERAS SE QUISERES CARO PAI MIM COM ESSE ANIMO NAO AVILTANDO TUA LINHAGEM COMO DIZES ASSIM FALOU E LAERTE ALEGROUSE E ENUNCIOU DISCURSO QUE DIA TENHO HOJE CAROS DEUSES DEVERAS ALEGROME MEU FILHO E SEU FILHO RIVALIZAM EM EXCELENCIA E PARADA AO LADO DISSELHE ATENA OLHOSDECORUJA FILHO DE ARQUESIO MAIS CARO DE TODOS OS COM PANHEIR OS TENDO REZADO FILHA OLHOSDECORUJA E ZEUS PAI BRANDE E DE PRONTO ARREMESSA LANFA SOMBRALONGA ISSO DITO GRANDE POTENCIA INSUFLOU PALAS ATENA TENDO ENTAO REZADO GRANDE FILHA DE ZEUS BRANDIU E DE PRONTO ARREMESSOU LANGA SOMBRALONGA E ATINGIU PERSUASIVO ATRAVES ELMO FACEBRONZEA ESSE LANA NAO AFASTOU E BRONZE VAROU COM ESTRONDO CAIU E RETINIU SUA ARMADURA CAIRAM SOBRE OS DA VANGUARDA ODISSEU E FILHO ILUSTRE E GOLPEARAM COM ESPADAS E LANAS DUASCURVAS E AGORA TODOS TERIAM MATADO E DEIXADO SEM RETORNO SE ATENA FILHA DE ZEUS PORTAEGIDE NAO TIVESSE COM VOZ GRITADO E CONTIDO TODO POVO ABSTENDEVOS DA GUERRA AFLITIVA ITACENSES PARA SEM SANGUE VOS SEPARARDES BEM RAPIDO ASSIM FALOU ATENA E AMARELO MEDO DOMINOUOS ELES SE ASSUSTARAM DAS MAOS VOARAM ARMAS E TODAS CHAO CAIRAM QUANDO VOZ DA DEUSA SOOU E VOLTARAMSE PARA CIDADE ALMEJANDO PERMANECER VIVOS E ATERRORIZANTE BERRO DEU MUITATENENCIA DIVINO ODISSEU E ARREMETEU APOS SE AGACHAR FEITO AGUIA VOAALTO ENTAO FILHO DE CRONO LANOU RAIO FUMOSO E CAIU DIANTE DA OLHOSDECORUJA PAIPONDEROSO ENTAO ODISSEU FALOU ATENA OLHOSDECORUJA DIVINAL FILHO DE LAERTE ODISSEU MUITOTRUQUE CONTEMTE PARA COM JUSTA DA GUERRA NIVELADORA QUE NAO TE TENHA RAIVA FILHO DE CRONO ZEUS AMPLAVISAO ASSIM FALOU ATENA E ELE OBEDECEU E ALEGROUSE ANIMO UM PACTO PARA FUTURO IMPOS ENTRE AMBAS PARTES PALAS ATENA FILHA DE ZEUS PORTAEGIDE SEMELHANTE MENTOR CORPO E NA VOZHUMANA POSFACIO LUIZ ALFREDO GARCIAROZA ODISSEIA E NARRATIVA DE UM RETORNO RETORNO DE ODISSEU ULISSES ITACA SUA TERRA NATAL APOS TER PARTICIPADO CERCO CIDADE DE ILION TROIA LLIADA POR SUA VEZ E NARRATIVA DAS ULTIMAS SEMANAS DA GUERRA DE TROIA AMBAS ATRIBUIDAS AO POETA AEDO HOMERO QUE TERIA VIVIDO SECULO VIII AC MAIS QUE NARRATIVA DE UM RETORNO ODISSEIA E NARRATIVARETORNO OU NARRATIVAACONTECIMENTO RETORNO DE ODISSEU E AQUI ACONTECIMENTO NAO E UMA EXPERIENCIA VIVIDA POR ALGUEM ALGO PERCEBIDO OU MESMO SOFRIDO MAS ALGO NARRADO POR ALGUEM ALGO QUE SE PASSA AMBITO DA FALA E NAO DA EXPERIENCIA SUBJETIVA OBJETO DESSA NARRATIVAACONTECIMENTO PODE SER REAL IMAGINARIO FICTICIO ELE E PARA OS OUVINTES DE HOMERO TAO VERDADEIRO COMO SEREIAS QUE ATRAEM PARA MORTE ODISSEU E SEUS COMPANHEIROS OU COMO AQUILES HEITOR E CICLOPE POLIFEMO BEM COMO APOLO E ATENA DEUSES PROTETORES DOS HEROIS GUERREIROS DURANTE OS COMBATES NAO ESTD EM QUESTAO SE ELES EXISTEM OU NAO SE SAO VERDADEIROS OU FICTICIOS SUA REALIDADE CONSISTE EM SEREM NARRADOS PELO POETAAEDO ASSIM ODISSEIA NAO E RELATO DA LONGA E ATRIBULADA VIAGEM DE ODISSEU EM SUA VOLTA AO LAR TAL COMO LLIADA NAO E RELATO DA GUERRA DE TROIA OU SEJA OS DOIS POEMAS COM SEUS MAIS DE MIL VERSOS NAO TERN VALOR DOCUMENTAL MESMO PORQUE HOMERO TERIA VIVIDO SECULO VIII AC ENQUANTO GUERRA DE TROIA TERIA SE DADO SECULO XIII AC HOMERO NAO PODERIA TER SIDO TESTEMUNHA DOS COMBATES NA PLANICIE DE TROIA OU RETORNO DE ODISSEU NEM PODERIA TER SE VALIDO TESTEMUNHO DOS PROPRIOS COMBATENTES OS HEROIS DA GUERRA DE TROIA AQUILES HEITOR NESTOR MENELAU AGAMEMNON E PROPRIO ODISSEU TERIAM VIVIDO POR VOLTA DE AC QUATRO OU CINCO SECULOS SEPARAM HOMERO DOS GREGOS E TROIANOS PROTAGONISTAS DA LLIADA E DA ODISSEIA ACRESCENTESE ISSO FATO DE ESCRITA PASSAR SER USADA MUNDO GREGO SOMENTE FINAL SECULO VIII AC E CONSTATASE QUE HOMERO E SEUS HEROISGUERREIROS ERAM POIS ANALFABETOS ESCRITA CHAMADA LINEAR B DESAPARECERA JUNTAMENTE COM DESTRUIAO E EXTIN AO DA CIVILIZAAO MICENICA SECULO XI AC NAO HAVIA PORTANTO POSSIBILIDADE DE REGISTRO ESCRITO SER UTILIZADO POR HOMERO QUATRO SECULOS MAIS TARDE AO COMPOR ODISSEIA ISSO SIGNIFICA QUE ODISSEIA NAO FOI ESCRITA POR HOMERO ESSA NARRATIVA ERA CANTADA PELO POETA EM SUAS APRESENTAOES AOS ARISTOI ARISTOCRACIA GUERREIRA DA GRECIA ARCAICA HOMERO ERA UM AEDO UM PORTADOR DA PALAVRA POETICA QUE COM SEUS CANTOS REMETIA OS OUVINTES AOS ACONTECIMENTOS ORIGINAIS AOS GESTOS DOS DEUSES E DOS HEROIS AO TEMPO MITICO DOS COMES PROPRIO PASSADO AO QUAL ELE SE REFERIA NAO ERA PROPRIAMENTE UM PASSADO MAS OUTRA DIMENSAO COSMOS OUTRA DIMENSAO TEMPO E ESPA QUAL SOMENTE AEDO COM AUXLLIO DAS MUSAS TINHA ACESSO SE ODISSEIA NAO FOI ESCRITA POR HOMERO MAS COMPOSTA ORALMENTE POR ELE SECULOS DEPOIS DOS SUPOSTOS EVENTOS POR CONSEGUINTE ODISSEU E SUA MULHER PENELOPE ASSIM COMO SEU FILHO TELEMACO E OS DEMAIS PROTAGONISTAS DA ODISSEIA NAO SAO PROPRIAMENTE EXISTENTES ELES EXISTEM ENQUANTO NARRADOS CANTADOS POR HOMERO OU SE PREFERIRMOS EXISTEM TANTO QUANTO EXISTIRAM AEDO CEGO DEMODOCO FEITICEIRA CIRCE LA PRINCESA NAUSICAA MONSTRO CILA OU CAO ARGOS DE ODISSEU MESMO RACIOCINIO PODE SER APLICADO LLIADA NAO HA NENHUM REGISTRO CONCRETO REFERENTE UMA GUERRA QUE TIVESSE DURADO UMA DECADA OCORRIDA SECULO XIII AC E CUJO TERMINO TERIA SE DADO COM CERCO E TOMADA DE TROIA PELOS GREGOS PORTANTO LONGA E MINUCIOSA NARRATIVA DE HOMERO CONSISTE EM SER UMA NARRATIVA EPICA E NADA MAIS ELA NAO REMETE UMA GUERRA QUE TERIA OCORRIDO NA REGIAO DE TROIA QUE NAO EXCLUI POSSIBILIDADE DE TER OCORRIDO UM PEQUENO CONFLITO ENTRE GREGOS E TROIANOS POR VOLTA SECULO XIII AC ACHAMADA GUERRA DE TROIA COM SEUS HEROIS AQUILES HEITOR AGAMEMNON E LLIADA ASSIM COMO RETORNO DE ODISSEU PARA ITACA E ODISSEIA BOS POEMAS EPICOS COMPOSTOS POR HOMERO LEVADO AO EXTREMO ESSE RACIOCINIO PODE COLOCAR EM DUVIDA PROPRIA EXISTENCIA DE HOMERO NA GRECIA ARCAICA HOMERO PODERIA DESIGNAR TANTO UM POETA AEDO UNICO COMO UM GRUPO DELES EM UMA CULTURA EXCLUSIVAMENTE ORAL OS POETAS AEDOS ERAM MEMORIA VIVA CABIA ELES CANTAR EM SEUS POEMAS TEMPO PASSADO TEMPO PRESENTE E TEMPO FUTURO VISTO SEREM OS AEDOS SACRALIZADOS PELOS DEUSES E INSPIRADOS PELAS MUSAS AEDO NAO ERA POETA PORQUE FAZIA POESIA MAS FAZIA POESIA PORQUE ERA POETA VIDENTE PROFETA SABIO DESSE MODO PODERIAMOS IMAGINAR TANTO UM GRUPO DE POETAS AEDOS QUE DESDE SECULO XIII AC CANTAVA E TRANSMITIA DE GERAAO GERAAO NARRATIVAS LENDARIAS DE UMA TROIA ARCAICA DESTRUIDA PELOS GREGOS E RETORNO DE ODISSEU ITACA COMO PODERIAMOS IMAGINAR UM INDIVIDUO SINGULAR UM AEDO SOLITARIO CHAMADO HOMERO COMPONDO E NARRANDO CANTANDO PELAS CIDADES DA GRECIA ESSES DOIS POEMAS NAO HA HISTORIC ENTE NENHUMA PROVA CONCRETA FAVOR DE UMA OU DE OUTRA HIPOTESE DISPOMOS APENAS DE TRAS MNEMICOS CONSERVADOS DURANTE SECULOS PELA TRADIAO E QUE POSTERIORMENTE FORAM TRANSCRITOS DA FORMA ORAL PARA ESCRITA EM LASCAS DE MADEIRA PAPIRO PELE ANIMAL ATE CHEGAR AO PAPEL E QUE SECULOS DEPOIS EM FORAM IMPRESSOS EM FLORENA FOI ENTANTO FLOMERO POETA SECULO VIII AC QUE TRADIO ATRIBUIU AUTORIA DA ILIADA E DA ODISSEIA MAIS SURPREENDENTE ENTANTO E QUE ARGUMENTAAO SOBRE NATUREZA OBJETO DA NARRATIVA PODE SER APLICADA TAMBEM AO NARRADOR PROPRIO HOMERO TALVEZSEJA UMA CRIAAO DA ODISSEIA E DA ILIADA PODEMOS CONCORDAR QUE TESE E IMPROVVEL MAS NAO IMPOSSIVEL CANTO DA ODISSEIA ODISSEU HEROI DE HOMERO ASSUME PRIMEIRA PESSOA E NARRATIVA EPICA PASSA SE DAR INTERIOR DE UMA OUTRA EM QUE HEROI DA SEGUNDA NARRATIVA E OBJETO DA PRIMEIRA E ODISSEU SE TORNA SIMULTANEAMENTE HEROI E NARRADOR DA MESMA FORMA DEMODOCO AEDO CEGO CANTO DA ODISSEIA PODERIA SER PROPRIO HOMERO ESSE DESDOBRAMENTO POREM PODE SER FEITO COM CONDIO DE DESCREDENCIARMOS OU DESQUALIFICARMOS ESTATUTO DE AEDO ATRIBUIDO AO POETA MESTRE DA VERDADE DA GRECIA ARCAICA QUE IMPLICARIA DESQUALIFICAAO DA FIGURA AEDO ENQUANTO TAL NAO ESTAMOS DISCUTINDO AQUI AUTORIA DOS POEMAS QUESTAO INEXISTENTE NA GRECIA ARCAICA MAS DEFENDENDO AUTENTICIDADE DA ODISSEIA E DA ILIADA COMO POEMAS EM VERSOS HEXAMETROS COMPOSTOS SECULO VIII AC E ATRIBUIDOS NOMINALMENTE UM POETA CHAMADO HOMERO CUJA EXISTENCIA AINDA E UM ENIGMA SER DECIFRADO MAS CUJOS POEMAS EPICOS SAO ETERNOS MESMO QUANDO QUESTIONADA AUTORIA DA ILIADA E DA ODISSEIA NAO RESTA DUVIDA QUANTO AUTENTICIDADE DE AMBOS OS POEMAS ISTO PORQUE COMO ASSINALA BERNARD KNOX LINGUA DE HOMERO NUNCA FOI FALADA POR NINGUEM E UMA LINGUA ARTIFICIAL UMA CRIAAO DOS PROPRIOS VERSOS EPICOS QUE PASSOU SER EMPREGADA PELOS AEDOS E MANTIDA POR SECULOS CANTO DOS POETAS PELA SUA QUALIDADE LITERARIA QUANTO EXISTENCIA DE HOMERO E AO FATO DE SER ELE AUTOR DA ODISSEIA E DA ILIADA TEMOS QUE FINAL SECULO VIII AC SECULO DE HOMERO ESCRITA RENASCE NA GRECIA NAO AQUELA MICENICA EXTINTA HAVIA SECULOS MAS UMA NOVA QUE ABSORVEU PALAVRAS E SIGNOS DE DIFERENTES DIALETOS DA LINGUA FALADA NA GRECIA E ALFABETO FENICIO COM RENASCIMENTO DA ESCRITA E PROVAVEL QUE OS ESCRIBAS ERUDITOS FINAL SECULO VIII E COMEDO VII AC TENHAM TRANSCRITO OS POEMAS CANTADOS NARRADOS POR HOMERO PARA PAPIRO E POSTERIORMENTE PARA PAPEL APRIMEIRA PERGUNTA QUE NOS OCORRE E QUERN DITOU OS POEMAS PARA OS ESCRIBAS PROPRIO HOMERO ALGUEM ALEM DELE SABERIA DE COR OS VERSOS QUE COMPDEM ODISSEIA E ILIA DAL SE NAO FOI ELE QUERN TERIA SIDO QUERN HOMERO CONFIARIA QUE HOJE EM DIA CHAMARIAMOS DE SEU PROJETO EDITORIAP ASEGUNDA PERGUNTA E MAIS DELICADA SE NEM MESMO HOMERO SABIA CADA VERSO DA ILIADA E DA ODISSEIA JA QUE POETA AEDO NAO DECORA VA FIEL E INTEGRALMENTE POEMA ELE FAZIA USO DE UM ESTOQUE DE VERSOS FORMULAS ESTAS SIM DECORADAS PARTIR DOS QUAIS RECOMPUNHA POEMA ELE IMPROVISAVA EM CIMA DE UMA ESTRUTURA DECORADA DE MODO QUE CADA APRESENTAPAO POETA AEDO UMA NOVA ILIADA E UMA NOVA ODISSEIA ERAM CANTADAS NARRADAS ENTAO QUAL ODISSEIA FOI DITADA PARA OS ESCRIBAS AMAIS PROXIMA DA ORIGINAL MAS QUAL ORIGINAL SE TANTO ODISSEIA COMO ILIADA ERAM TEXTOS ORAIS COMPOSTOS PARA SEREM OUVIDOS E NAO PARA SEREM LIDOS COMO APONTAR TEXTO ORAL ORIGINAL NAO HA NEM NUNCA HOUVE ODISSEIA ORIGINAL PRIMEIRA ODISSEIA ODISSEIA LEGITIMA E AQUELA CANTADA PELO AEDO INSPIRADO PELAS MUSAS PARA ESCUTA DOS ARISTOI NAO RESTA DUVIDA QUANTO AO FATO DE ODISSEIA SER POSTERIOR ILIADA HA PASSAGENS NA ODISSEIA QUE REMETEM ACONTECIMENTOS DA ILIADA AO PASSO QUE CONTRARIO NAO OCORRE E CASO EPISODIO CAVALO DE TROIA QUE NAO E MENCIONADO NA PROPRIA ILIADA E RECEBE UMA REFERENDA BREVE E INCOMPLETA CANTO DA ODISSEIA APESAR DE SER ARDIL INVENTADO POR ODISSEU PARA ULTRAPASSAR MURALHAS DE TROIA ADUVIDA ALGUMAS VEZES LEVANTADA E SE OS DOIS POEMAS FORAM CRIAPOES MESMO POETA ILIADA CANTA FAPANHAS HEROIGUERREIRO PRINCIPALMENTE FURIA DESMEDIDA DE AQUILES CONTRA HEITOR E SEU RESSENTIMENTO DESMEDIDO CONTRA AGAMEMNON ODISSEIA POR SUA VEZ E POEMA DAS AVENTURAS E DESVENTURAS DE ODISSEU EM SEU RETORNO ITACA E AOS BRAOS DE PENELOPE ENTANTO DISPARIDADE DE TEMA E DE ENFASE NAO SUGERE DIFERENTES POETAS AEDOS QUALIDADE LITERARIA HARMONIA DOS VERSOS HEXAMETROS ESTA PRESENTE EM AMBOS ATE MESMO CANTO APONTADO POR ALGUNS CRLTICOS COMO PARTE DA ODISSEIA QUE PELO CONTEUDO DESTOARIA CONJUNTO POEMA COMO SE TIVESSE SIDO COMPOSTO POR OUTRO AEDO PODE SER TORNADO COMO HOMERO DA ODISSEIA BUSCANDO HOMERO DA LLIADA FURIA INSANA DE AQUILES PARA COMPOR SEQUENCIA DE CENAS FINAIS RETORNO DE ODISSEU FINAL DIGNO MAIOR POEMA EPICO OCIDENTE RESTA AINDA LENDA SEGUNDO QUAL HOMERO ERA CEGO ANALFABETO E CEGO SOAM EXCESSIVAS DUAS CARACTERISTICAS TAO RESTRITIVAS ATRIBUIDAS AO HOMEM QUE CRIOU OS DOIS POEMAS SEMINAIS DA LITERATURA QUE ATE HOJE ALIMENTAM NAO SOMENTE ELA MAS TAMBEM ARTES CENICAS E IMAGINARIO HOMEM OCIDENTAL COMO ISSO SERIA POSSIVEL ARESPOSTA PODE SER QUE ESSE HOMEM NAO ERA DEFICIENTE MAS PRIVILEGIADO POETA AEDO DA GRECIA ARCAICA NAO ERA UMA PESSOA COMUM TAMPOUCO UM ARISTOI ELE SE APRESENTAVA COMO PORTADOR DE UM DOM DIVINO DE SER INSPIRADO PELAS MUSAS APRIMEIRA FRASE DA ODISSEIA E VARAO NARRA MUSA MUITASVIAS QUE MUITO VAGOU APOS DEVASTAR SACRA CIDADE DE TROIA QUEM E ESSE DA FRASE SENAO AEDO QUE CANTAVA POEMA E PEDIA INSPIRAFAO DA MUSA ISTO E PROPRIO HOMERO SEJA QUEM QUE TENHA SIDO HOMERO RESTA POUCA DUVIDA QUANTO AO FATO DE OS DOIS POEMAS SEREM OBRA DE UM MESMO POETA E PRATICAMENTE IM POSSIVEL QUE DUAS PESSOAS AINDA QUE DOIS AEDOS TENHAM COMPOSTO AO MESMO TEMPO OS VERSOS HEXAMETROS DACTILICOS DE QUE SAO FEITOS OS DOIS POEMAS TAMBEM E POUCO ADMISSIVEL QUE SEGUNDO POEMA ODISSEIA TENHA SIDO CRIADO EM DATA POSTERIOR SOBRE MODELO PRIMEIRO LLIADA ESCRITO POR UM POETA LAICO ISTO E NAO AEDO DOM AEDO NAO PODIA SER MANTIDO NEM TRANSMITIDO OU PELO TEXTO ESCRITO CANTO AEDO E PALAVRA SACRALIZADA PELAS DIVINDADES APOLO E MNEMOSYNE CADA ODISSEIA LEGITIMA E UMA REPETIGAO DIFERENCIAL UM ACONTECIMENTO UNICO NAO HA UM MODELO E SUAS COPIAS CADA COPIA E UM NOVO CANTO CANTADO PELO POETA INSPIRADO PELA MESMA RAZAO POEMA NAO PODE SER OUVIDO POR UMA PESSOA COMUM E REPETIDO POR ELA PARA OUTROS OUVINTES APALAVRA POETA NAO ERA UMA MOEDA QUE PUDESSE SER PASSADA ADIANTE POR QUEM RECEBESSE NAO SER QUE ESSE ALGUEM FOSSE OUTRO AEDO PROPRIO ATO DA ESCUTA SE TORNAVA SACRALIZADO QUANDO SE TRATAVA DA ESCUTA CANTO AEDO SEM DUVIDA ESSA MAGIA QUE UNIA NARRATIVA E ESCUTA NUM MESMO ACONTECIMENTO SACRALIZADO PELAS MUSAS FOI PERDIDA AO SER TRANSCRITO POEMA AQUILO QUE ERA NARRATIVA POETA AEDO DEIXOU DE SER UM ACONTECIMENTO PARA SE TRANSFORMAR EM DOCUMENTO ESCRITO AINDA QUE DITADO PELO POETA QUE ERA POESIA SAGRADA TORNOUSE POESIA LAICA PODENDO SER COPIADA E MULTIPLICADA AO INFINITO APESAR DA PERDA DA SACRALIDADE ODISSEIA PERMANECE PASSADOS QUASE MIL ANOS MAIOR POEMA EPICO DA LITERATURA OCIDENTAL CF FREDERICO LOURENPO PREFACIO HOMERO ODISSEIA TRAD FREDERICO LOUREN SAO PAULO PENGUIN CLASSICS COMPANHIA DAS LETRAS P CF BERNARD KNOX INTRODUAO IBID P SILENCIO DAS SEREIAS FRANZ KAFKA COMPROVAAO DE QUE MESMO MEIOS INSUFICIENTES E ATE INFANTIS PODEM SERVIR SALVAFAO AFIM DE SE PROTEGER DAS SEREIAS ODISSEU ENTUPIU DE CERA OS OUVIDOS E MANDOU QUE ACORRENTASSEM COM FIRMEZA AO MASTRO E CLARO QUE DESDE SEMPRE TODOS OS VIAJ ANTES TERIAM PODIDO FAZER ALGO ASSIM NAO SER AQUELES AOS QUAIS SEREIAS ATRAIAM JA DESDE MUITO LONGE MAS MUNDO INTEIRO SABIA QUE DE NADA ADIANTAVA CANTO DAS SEREIAS IMPREGNAVA TUDO QUE DIRA UM PUNHADO DE CERA E PAIXAO DOS SEDUZIDOS TERIA ARREBENTADO MUITO MAIS QUE CORRENTES E MASTRO NISSO POREM ODISSEU NEM PENSAVA EMBORA TALVEZJA TIVESSE OUVIDO FALAR RESPEITO CONFIAVA PLENAMENTE PUNHADO DE CERA E FENCE DE CORRENTES E MUNIDO DE INOCENTE ALEGRIA COM OS MEIOZINHOS DE QUE DISPUNHA PARTIU AO ENCONTRO DAS SEREIAS SEREIAS CONTUDO POSSUEM UMA ARMA AINDA MAIS TERRIVEL QUE SEU CANTO SEU SILENCIO E CERTO QUE NUNCA ACONTECEU MAS SERIA TALVEZCONCEBIVEL QUE ALGUEM TIVESSE SE SALVADO DE SEU CANTO DE SUA MUDEZ JAMAIS SENTIMENTO DE TELAS VENCIDO COM PROPRIAS FORMAS AVASSALADORA ARROGANCIA DAI RESULTANTE NADA NESTE MUNDO E CAPAZDE CONTER E DE FATO PODEROSAS CANTORAS NAO CANTARAM QUANDO ODISSEU CHEGOU FOSSE PORQUE ACREDITASSEM QUE SILENCIO PODIA COM AQUELE OPONENTE OU PORQUE VISAO DA BEMAVENTURANSA ROSTO DELE QUE NAO PENSAVA SENAO EM CERA E CORRENTES TIVESSE FEITO ESQUECER TODO CANTO ODISSEU POREM NAO OUVIU SEU SILENCIO POR ASSIM DIZER ACREDITOU QUE CANTASSEM E QUE ELE ESTIVESSE SALVO DE OUVILAS COM UM OLHAR FUGAZ OBSERVOU PRIMEIRO MOVIMENTO DE SEUS PESCOFOS RESPIRAR FUNDO OS OLHOS CHEIOS DE LA GRIM BOCA SEMIABERTA E ACREDITOU QUE FIZESSEM PARTE DAS ARIAS SOANDO INAUDIVEIS SEU REDOR MAS LOGO TUDO ISSO RESVALOU POR SEUS OLHOS VOLTADOS PARA LONGE SEREIAS VERDADEIRAMENTE DESAPARECERAM E JUSTO QUANDO ESTAVA MAIS PROXIMO DELAS ELE JA NEM MAIS SABIA DE SUA EXISTENCIA ELAS POR SUA VEZ MAIS BELAS QUE NUNCA ESTICAVAMSE E GIRAVAM CORPO DEIXANDO OS CABELOS HORRIPILANTES SOPRAR LIVRES AO VENTO E ALONGANDO GARRAS NA ROCHA NAO QUERIAM MAIS SEDUZIR MAS SOMENTE APANHAR AINDA PELO MAXIMO DE TEMPO POSSIVEL BRILHO QUE REFLETIA DOS GRANDES OLHOS DE ODISSEU SE SEREIAS TIVESSEM CONSCIENCIA TERIAM SIDO ANIQUILADAS ENTAO MAS PERMANECERAM APENAS ODISSEU ESCAPOULHES DESSA HISTORIA ALIAS RELATASE AINDA UM COMPLEMENTO DIZSE QUE ODISSEU ERA TAO ASTUTO UMA TAL RAPOSA QUE NEM MESMO DEUSA DESTINO LOGROU PENETRAR EM SEU ULTIMO EMBORA ISTO JA NAO SEJA COMPREENSIVEL RAZAO HUMANA TALVEZELE TENHA DE FATO PERCEBIDO QUE SEREIAS ESTAVAM MUDAS TENDO ENTAO DE CERTO MODO CONTRAPOSTO ELAS E AOS DEUSES TODA SIMULAGAO ACIMA TAO SOMENTE COMO UM ESCUDO TRADUCAO SERGIO TELLAROLI ITACA KONSTANTINOS KAVAFIS SE PARTIRES UM DIA RUMO ITACA FAZ VOTOS DE QUE CAMINHO SEJA LONGO REPLETO DE AVENTURAS REPLETO DE SABER NEM LESTRIGOES NEM OS CIC LOPES NEM COLERICO POSLDON TE INTIMIDEM ELES TEU CAM INHO JAMAIS ENCONTRARAS SE ALTIVO TEU PENSAMENTO SE SUTIL EMOAO TEU CORPO E TEU ESPLRITO TOCAR NEM LESTRIGOES NEM OS CIC LOPES NEM BRAVIO POSIDON DE VER SE TU MESMO NAO OS LEVARES DENTRO DA ALMA SE TUA ALMA NAO OS PUSER DIANTE DE TI FAZ VOTOS DE QUE CAMINHO SEJA LONGO NUMEROSAS SERAO MANHAS DE VERAO NAS QUAIS COM QUE PRAZER COM QUE ALEGRIA TU DE ENTRAR PELA PRIMEIRA VEZUM PORTO PARA CORRER LOJAS DOS FENICIOS E BELAS MERCANCIAS ADQUIRIR MADREPEROLAS CORAIS AMBARES EBANOS E PERFUMES SENSUAIS DE TODA ESPECIE QUANTO HOUVER DE AROMAS DELEITOSOS AMUITAS CIDADES EGITO PEREGRINA PARA APRENDER PARA APRENDER DOS DOUTOS TEM TODO TEMPO ITACA NA MENTE ESTAS PREDESTINADO ALI CHEGAR MAS NAO APRESSES VIAGEM NUNCA MELHOR MUITOS ANOS LEVARES DE JORNADA E FUNDEARES NA ILHA VELHO ENFIM RICO DE QUANTO GANHASTE CAMINHO SEM ESPERAR RIQUEZAS QUE ITACA TE DESSE UMA LA VIA GEM DEUTE ITACA SEM ELA NAO TE PONHAS CAMINHO MAIS QUE ISSO NAO LHE CUMPRE DARTE ITACA NAO TE ILUDIU SE ACHAS POBRE TU TE TORNASTE SABIO UM HOMEM DE EXPERIENCIA E AGORA SABES QUE SIGNIFICAM ITACAS